
---------- Begin Simulation Statistics ----------
final_tick                               123718821000                       # Number of ticks from beginning of simulation (restored from checkpoints and never reset)
host_inst_rate                                 274164                       # Simulator instruction rate (inst/s)
host_mem_usage                                 658040                       # Number of bytes of host memory used
host_op_rate                                   300021                       # Simulator op (including micro ops) rate (op/s)
host_seconds                                   364.75                       # Real time elapsed on the host
host_tick_rate                              339192010                       # Simulator tick rate (ticks/s)
sim_freq                                 1000000000000                       # Frequency of simulated ticks
sim_insts                                   100000001                       # Number of instructions simulated
sim_ops                                     109431277                       # Number of ops (including micro ops) simulated
sim_seconds                                  0.123719                       # Number of seconds simulated
sim_ticks                                123718821000                       # Number of ticks simulated
system.cpu.committedInsts                   100000001                       # Number of instructions committed
system.cpu.committedOps                     109431277                       # Number of ops (including micro ops) committed
system.cpu.cpi                               1.237188                       # CPI: cycles per instruction
system.cpu.discardedOps                        376525                       # Number of ops (including micro ops) which were discarded before commit
system.cpu.idleCycles                        10210869                       # Total number of cycles that the object has spent stopped
system.cpu.ipc                               0.808284                       # IPC: instructions per cycle
system.cpu.numCycles                        123718821                       # number of cpu cycles simulated
system.cpu.numFetchSuspends                         0                       # Number of times Execute suspended instruction fetching
system.cpu.numWorkItemsCompleted                    0                       # number of work items this cpu completed
system.cpu.numWorkItemsStarted                      0                       # number of work items this cpu started
system.cpu.op_class_0::No_OpClass                   0      0.00%      0.00% # Class of committed instruction
system.cpu.op_class_0::IntAlu                72955010     66.67%     66.67% # Class of committed instruction
system.cpu.op_class_0::IntMult                 568364      0.52%     67.19% # Class of committed instruction
system.cpu.op_class_0::IntDiv                       0      0.00%     67.19% # Class of committed instruction
system.cpu.op_class_0::FloatAdd                     0      0.00%     67.19% # Class of committed instruction
system.cpu.op_class_0::FloatCmp                     0      0.00%     67.19% # Class of committed instruction
system.cpu.op_class_0::FloatCvt                     0      0.00%     67.19% # Class of committed instruction
system.cpu.op_class_0::FloatMult                    0      0.00%     67.19% # Class of committed instruction
system.cpu.op_class_0::FloatMultAcc                 0      0.00%     67.19% # Class of committed instruction
system.cpu.op_class_0::FloatDiv                     0      0.00%     67.19% # Class of committed instruction
system.cpu.op_class_0::FloatMisc                    0      0.00%     67.19% # Class of committed instruction
system.cpu.op_class_0::FloatSqrt                    0      0.00%     67.19% # Class of committed instruction
system.cpu.op_class_0::SimdAdd                 241336      0.22%     67.41% # Class of committed instruction
system.cpu.op_class_0::SimdAddAcc                   0      0.00%     67.41% # Class of committed instruction
system.cpu.op_class_0::SimdAlu                 154628      0.14%     67.55% # Class of committed instruction
system.cpu.op_class_0::SimdCmp                 120668      0.11%     67.66% # Class of committed instruction
system.cpu.op_class_0::SimdCvt                      0      0.00%     67.66% # Class of committed instruction
system.cpu.op_class_0::SimdMisc                 44543      0.04%     67.70% # Class of committed instruction
system.cpu.op_class_0::SimdMult                     0      0.00%     67.70% # Class of committed instruction
system.cpu.op_class_0::SimdMultAcc                  0      0.00%     67.70% # Class of committed instruction
system.cpu.op_class_0::SimdShift                    0      0.00%     67.70% # Class of committed instruction
system.cpu.op_class_0::SimdShiftAcc                 0      0.00%     67.70% # Class of committed instruction
system.cpu.op_class_0::SimdDiv                      0      0.00%     67.70% # Class of committed instruction
system.cpu.op_class_0::SimdSqrt                     0      0.00%     67.70% # Class of committed instruction
system.cpu.op_class_0::SimdFloatAdd                 0      0.00%     67.70% # Class of committed instruction
system.cpu.op_class_0::SimdFloatAlu                 0      0.00%     67.70% # Class of committed instruction
system.cpu.op_class_0::SimdFloatCmp                 0      0.00%     67.70% # Class of committed instruction
system.cpu.op_class_0::SimdFloatCvt                 0      0.00%     67.70% # Class of committed instruction
system.cpu.op_class_0::SimdFloatDiv                 0      0.00%     67.70% # Class of committed instruction
system.cpu.op_class_0::SimdFloatMisc           166417      0.15%     67.85% # Class of committed instruction
system.cpu.op_class_0::SimdFloatMult                0      0.00%     67.85% # Class of committed instruction
system.cpu.op_class_0::SimdFloatMultAcc             0      0.00%     67.85% # Class of committed instruction
system.cpu.op_class_0::SimdFloatSqrt                0      0.00%     67.85% # Class of committed instruction
system.cpu.op_class_0::SimdReduceAdd                0      0.00%     67.85% # Class of committed instruction
system.cpu.op_class_0::SimdReduceAlu                0      0.00%     67.85% # Class of committed instruction
system.cpu.op_class_0::SimdReduceCmp                0      0.00%     67.85% # Class of committed instruction
system.cpu.op_class_0::SimdFloatReduceAdd            0      0.00%     67.85% # Class of committed instruction
system.cpu.op_class_0::SimdFloatReduceCmp            0      0.00%     67.85% # Class of committed instruction
system.cpu.op_class_0::SimdAes                      0      0.00%     67.85% # Class of committed instruction
system.cpu.op_class_0::SimdAesMix                   0      0.00%     67.85% # Class of committed instruction
system.cpu.op_class_0::SimdSha1Hash                 0      0.00%     67.85% # Class of committed instruction
system.cpu.op_class_0::SimdSha1Hash2                0      0.00%     67.85% # Class of committed instruction
system.cpu.op_class_0::SimdSha256Hash               0      0.00%     67.85% # Class of committed instruction
system.cpu.op_class_0::SimdSha256Hash2              0      0.00%     67.85% # Class of committed instruction
system.cpu.op_class_0::SimdShaSigma2                0      0.00%     67.85% # Class of committed instruction
system.cpu.op_class_0::SimdShaSigma3                0      0.00%     67.85% # Class of committed instruction
system.cpu.op_class_0::SimdPredAlu                  0      0.00%     67.85% # Class of committed instruction
system.cpu.op_class_0::MemRead               20645992     18.87%     86.72% # Class of committed instruction
system.cpu.op_class_0::MemWrite              14534319     13.28%    100.00% # Class of committed instruction
system.cpu.op_class_0::FloatMemRead                 0      0.00%    100.00% # Class of committed instruction
system.cpu.op_class_0::FloatMemWrite                0      0.00%    100.00% # Class of committed instruction
system.cpu.op_class_0::IprAccess                    0      0.00%    100.00% # Class of committed instruction
system.cpu.op_class_0::InstPrefetch                 0      0.00%    100.00% # Class of committed instruction
system.cpu.op_class_0::total                109431277                       # Class of committed instruction
system.cpu.tickCycles                       113507952                       # Number of cycles that the object actually ticked
system.cpu.workload.numSyscalls                    87                       # Number of system calls
system.membus.snoop_filter.hit_multi_requests            0                       # Number of requests hitting in the snoop filter with multiple (>1) holders of the requested data.
system.membus.snoop_filter.hit_multi_snoops            0                       # Number of snoops hitting in the snoop filter with multiple (>1) holders of the requested data.
system.membus.snoop_filter.hit_single_requests        26173                       # Number of requests hitting in the snoop filter with a single holder of the requested data.
system.membus.snoop_filter.hit_single_snoops            0                       # Number of snoops hitting in the snoop filter with a single holder of the requested data.
system.membus.snoop_filter.tot_requests         69124                       # Total number of requests made to the snoop filter.
system.membus.snoop_filter.tot_snoops               0                       # Total number of snoops made to the snoop filter.
system.tol2bus.snoop_filter.hit_multi_requests           41                       # Number of requests hitting in the snoop filter with multiple (>1) holders of the requested data.
system.tol2bus.snoop_filter.hit_multi_snoops            5                       # Number of snoops hitting in the snoop filter with multiple (>1) holders of the requested data.
system.tol2bus.snoop_filter.hit_single_requests       598019                       # Number of requests hitting in the snoop filter with a single holder of the requested data.
system.tol2bus.snoop_filter.hit_single_snoops          430                       # Number of snoops hitting in the snoop filter with a single holder of the requested data.
system.tol2bus.snoop_filter.tot_requests      1196944                       # Total number of requests made to the snoop filter.
system.tol2bus.snoop_filter.tot_snoops            435                       # Total number of snoops made to the snoop filter.
system.clk_domain.clock                          1000                       # Clock period in ticks
system.cpu.branchPred.lookups                20360377                       # Number of BP lookups
system.cpu.branchPred.condPredicted          16297609                       # Number of conditional branches predicted
system.cpu.branchPred.condIncorrect             53395                       # Number of conditional branches incorrect
system.cpu.branchPred.BTBLookups              8737522                       # Number of BTB lookups
system.cpu.branchPred.BTBHits                 8736127                       # Number of BTB hits
system.cpu.branchPred.BTBHitPct             99.984034                       # BTB Hit Percentage
system.cpu.branchPred.RASUsed                 1050573                       # Number of times the RAS was used to get a target.
system.cpu.branchPred.RASIncorrect                326                       # Number of incorrect RAS predictions.
system.cpu.branchPred.indirectLookups          434007                       # Number of indirect predictor lookups.
system.cpu.branchPred.indirectHits             300030                       # Number of indirect target hits.
system.cpu.branchPred.indirectMisses           133977                       # Number of indirect misses.
system.cpu.branchPred.indirectMispredicted         1033                       # Number of mispredicted indirect branches.
system.cpu.dcache.demand_hits::.cpu.data     35598925                       # number of demand (read+write) hits
system.cpu.dcache.demand_hits::total         35598925                       # number of demand (read+write) hits
system.cpu.dcache.overall_hits::.cpu.data     35602224                       # number of overall hits
system.cpu.dcache.overall_hits::total        35602224                       # number of overall hits
system.cpu.dcache.demand_misses::.cpu.data        87179                       # number of demand (read+write) misses
system.cpu.dcache.demand_misses::total          87179                       # number of demand (read+write) misses
system.cpu.dcache.overall_misses::.cpu.data        87241                       # number of overall misses
system.cpu.dcache.overall_misses::total         87241                       # number of overall misses
system.cpu.dcache.demand_miss_latency::.cpu.data   6808759000                       # number of demand (read+write) miss cycles
system.cpu.dcache.demand_miss_latency::total   6808759000                       # number of demand (read+write) miss cycles
system.cpu.dcache.overall_miss_latency::.cpu.data   6808759000                       # number of overall miss cycles
system.cpu.dcache.overall_miss_latency::total   6808759000                       # number of overall miss cycles
system.cpu.dcache.demand_accesses::.cpu.data     35686104                       # number of demand (read+write) accesses
system.cpu.dcache.demand_accesses::total     35686104                       # number of demand (read+write) accesses
system.cpu.dcache.overall_accesses::.cpu.data     35689465                       # number of overall (read+write) accesses
system.cpu.dcache.overall_accesses::total     35689465                       # number of overall (read+write) accesses
system.cpu.dcache.demand_miss_rate::.cpu.data     0.002443                       # miss rate for demand accesses
system.cpu.dcache.demand_miss_rate::total     0.002443                       # miss rate for demand accesses
system.cpu.dcache.overall_miss_rate::.cpu.data     0.002444                       # miss rate for overall accesses
system.cpu.dcache.overall_miss_rate::total     0.002444                       # miss rate for overall accesses
system.cpu.dcache.demand_avg_miss_latency::.cpu.data 78100.907329                       # average overall miss latency
system.cpu.dcache.demand_avg_miss_latency::total 78100.907329                       # average overall miss latency
system.cpu.dcache.overall_avg_miss_latency::.cpu.data 78045.402964                       # average overall miss latency
system.cpu.dcache.overall_avg_miss_latency::total 78045.402964                       # average overall miss latency
system.cpu.dcache.blocked_cycles::no_mshrs            0                       # number of cycles access was blocked
system.cpu.dcache.blocked_cycles::no_targets            0                       # number of cycles access was blocked
system.cpu.dcache.blocked::no_mshrs                 0                       # number of cycles access was blocked
system.cpu.dcache.blocked::no_targets               0                       # number of cycles access was blocked
system.cpu.dcache.avg_blocked_cycles::no_mshrs          nan                       # average number of cycles each access was blocked
system.cpu.dcache.avg_blocked_cycles::no_targets          nan                       # average number of cycles each access was blocked
system.cpu.dcache.writebacks::.writebacks        54028                       # number of writebacks
system.cpu.dcache.writebacks::total             54028                       # number of writebacks
system.cpu.dcache.demand_mshr_hits::.cpu.data        23432                       # number of demand (read+write) MSHR hits
system.cpu.dcache.demand_mshr_hits::total        23432                       # number of demand (read+write) MSHR hits
system.cpu.dcache.overall_mshr_hits::.cpu.data        23432                       # number of overall MSHR hits
system.cpu.dcache.overall_mshr_hits::total        23432                       # number of overall MSHR hits
system.cpu.dcache.demand_mshr_misses::.cpu.data        63747                       # number of demand (read+write) MSHR misses
system.cpu.dcache.demand_mshr_misses::total        63747                       # number of demand (read+write) MSHR misses
system.cpu.dcache.overall_mshr_misses::.cpu.data        63804                       # number of overall MSHR misses
system.cpu.dcache.overall_mshr_misses::total        63804                       # number of overall MSHR misses
system.cpu.dcache.demand_mshr_miss_latency::.cpu.data   5133216000                       # number of demand (read+write) MSHR miss cycles
system.cpu.dcache.demand_mshr_miss_latency::total   5133216000                       # number of demand (read+write) MSHR miss cycles
system.cpu.dcache.overall_mshr_miss_latency::.cpu.data   5135751000                       # number of overall MSHR miss cycles
system.cpu.dcache.overall_mshr_miss_latency::total   5135751000                       # number of overall MSHR miss cycles
system.cpu.dcache.demand_mshr_miss_rate::.cpu.data     0.001786                       # mshr miss rate for demand accesses
system.cpu.dcache.demand_mshr_miss_rate::total     0.001786                       # mshr miss rate for demand accesses
system.cpu.dcache.overall_mshr_miss_rate::.cpu.data     0.001788                       # mshr miss rate for overall accesses
system.cpu.dcache.overall_mshr_miss_rate::total     0.001788                       # mshr miss rate for overall accesses
system.cpu.dcache.demand_avg_mshr_miss_latency::.cpu.data 80524.824698                       # average overall mshr miss latency
system.cpu.dcache.demand_avg_mshr_miss_latency::total 80524.824698                       # average overall mshr miss latency
system.cpu.dcache.overall_avg_mshr_miss_latency::.cpu.data 80492.618018                       # average overall mshr miss latency
system.cpu.dcache.overall_avg_mshr_miss_latency::total 80492.618018                       # average overall mshr miss latency
system.cpu.dcache.replacements                  63292                       # number of replacements
system.cpu.dcache.ReadReq_hits::.cpu.data     21400395                       # number of ReadReq hits
system.cpu.dcache.ReadReq_hits::total        21400395                       # number of ReadReq hits
system.cpu.dcache.ReadReq_misses::.cpu.data        31441                       # number of ReadReq misses
system.cpu.dcache.ReadReq_misses::total         31441                       # number of ReadReq misses
system.cpu.dcache.ReadReq_miss_latency::.cpu.data   1156983000                       # number of ReadReq miss cycles
system.cpu.dcache.ReadReq_miss_latency::total   1156983000                       # number of ReadReq miss cycles
system.cpu.dcache.ReadReq_accesses::.cpu.data     21431836                       # number of ReadReq accesses(hits+misses)
system.cpu.dcache.ReadReq_accesses::total     21431836                       # number of ReadReq accesses(hits+misses)
system.cpu.dcache.ReadReq_miss_rate::.cpu.data     0.001467                       # miss rate for ReadReq accesses
system.cpu.dcache.ReadReq_miss_rate::total     0.001467                       # miss rate for ReadReq accesses
system.cpu.dcache.ReadReq_avg_miss_latency::.cpu.data 36798.543303                       # average ReadReq miss latency
system.cpu.dcache.ReadReq_avg_miss_latency::total 36798.543303                       # average ReadReq miss latency
system.cpu.dcache.ReadReq_mshr_hits::.cpu.data         6737                       # number of ReadReq MSHR hits
system.cpu.dcache.ReadReq_mshr_hits::total         6737                       # number of ReadReq MSHR hits
system.cpu.dcache.ReadReq_mshr_misses::.cpu.data        24704                       # number of ReadReq MSHR misses
system.cpu.dcache.ReadReq_mshr_misses::total        24704                       # number of ReadReq MSHR misses
system.cpu.dcache.ReadReq_mshr_miss_latency::.cpu.data    914573000                       # number of ReadReq MSHR miss cycles
system.cpu.dcache.ReadReq_mshr_miss_latency::total    914573000                       # number of ReadReq MSHR miss cycles
system.cpu.dcache.ReadReq_mshr_miss_rate::.cpu.data     0.001153                       # mshr miss rate for ReadReq accesses
system.cpu.dcache.ReadReq_mshr_miss_rate::total     0.001153                       # mshr miss rate for ReadReq accesses
system.cpu.dcache.ReadReq_avg_mshr_miss_latency::.cpu.data 37021.251619                       # average ReadReq mshr miss latency
system.cpu.dcache.ReadReq_avg_mshr_miss_latency::total 37021.251619                       # average ReadReq mshr miss latency
system.cpu.dcache.WriteReq_hits::.cpu.data     14198530                       # number of WriteReq hits
system.cpu.dcache.WriteReq_hits::total       14198530                       # number of WriteReq hits
system.cpu.dcache.WriteReq_misses::.cpu.data        55738                       # number of WriteReq misses
system.cpu.dcache.WriteReq_misses::total        55738                       # number of WriteReq misses
system.cpu.dcache.WriteReq_miss_latency::.cpu.data   5651776000                       # number of WriteReq miss cycles
system.cpu.dcache.WriteReq_miss_latency::total   5651776000                       # number of WriteReq miss cycles
system.cpu.dcache.WriteReq_accesses::.cpu.data     14254268                       # number of WriteReq accesses(hits+misses)
system.cpu.dcache.WriteReq_accesses::total     14254268                       # number of WriteReq accesses(hits+misses)
system.cpu.dcache.WriteReq_miss_rate::.cpu.data     0.003910                       # miss rate for WriteReq accesses
system.cpu.dcache.WriteReq_miss_rate::total     0.003910                       # miss rate for WriteReq accesses
system.cpu.dcache.WriteReq_avg_miss_latency::.cpu.data 101398.973770                       # average WriteReq miss latency
system.cpu.dcache.WriteReq_avg_miss_latency::total 101398.973770                       # average WriteReq miss latency
system.cpu.dcache.WriteReq_mshr_hits::.cpu.data        16695                       # number of WriteReq MSHR hits
system.cpu.dcache.WriteReq_mshr_hits::total        16695                       # number of WriteReq MSHR hits
system.cpu.dcache.WriteReq_mshr_misses::.cpu.data        39043                       # number of WriteReq MSHR misses
system.cpu.dcache.WriteReq_mshr_misses::total        39043                       # number of WriteReq MSHR misses
system.cpu.dcache.WriteReq_mshr_miss_latency::.cpu.data   4218643000                       # number of WriteReq MSHR miss cycles
system.cpu.dcache.WriteReq_mshr_miss_latency::total   4218643000                       # number of WriteReq MSHR miss cycles
system.cpu.dcache.WriteReq_mshr_miss_rate::.cpu.data     0.002739                       # mshr miss rate for WriteReq accesses
system.cpu.dcache.WriteReq_mshr_miss_rate::total     0.002739                       # mshr miss rate for WriteReq accesses
system.cpu.dcache.WriteReq_avg_mshr_miss_latency::.cpu.data 108051.199959                       # average WriteReq mshr miss latency
system.cpu.dcache.WriteReq_avg_mshr_miss_latency::total 108051.199959                       # average WriteReq mshr miss latency
system.cpu.dcache.SoftPFReq_hits::.cpu.data         3299                       # number of SoftPFReq hits
system.cpu.dcache.SoftPFReq_hits::total          3299                       # number of SoftPFReq hits
system.cpu.dcache.SoftPFReq_misses::.cpu.data           62                       # number of SoftPFReq misses
system.cpu.dcache.SoftPFReq_misses::total           62                       # number of SoftPFReq misses
system.cpu.dcache.SoftPFReq_accesses::.cpu.data         3361                       # number of SoftPFReq accesses(hits+misses)
system.cpu.dcache.SoftPFReq_accesses::total         3361                       # number of SoftPFReq accesses(hits+misses)
system.cpu.dcache.SoftPFReq_miss_rate::.cpu.data     0.018447                       # miss rate for SoftPFReq accesses
system.cpu.dcache.SoftPFReq_miss_rate::total     0.018447                       # miss rate for SoftPFReq accesses
system.cpu.dcache.SoftPFReq_mshr_misses::.cpu.data           57                       # number of SoftPFReq MSHR misses
system.cpu.dcache.SoftPFReq_mshr_misses::total           57                       # number of SoftPFReq MSHR misses
system.cpu.dcache.SoftPFReq_mshr_miss_latency::.cpu.data      2535000                       # number of SoftPFReq MSHR miss cycles
system.cpu.dcache.SoftPFReq_mshr_miss_latency::total      2535000                       # number of SoftPFReq MSHR miss cycles
system.cpu.dcache.SoftPFReq_mshr_miss_rate::.cpu.data     0.016959                       # mshr miss rate for SoftPFReq accesses
system.cpu.dcache.SoftPFReq_mshr_miss_rate::total     0.016959                       # mshr miss rate for SoftPFReq accesses
system.cpu.dcache.SoftPFReq_avg_mshr_miss_latency::.cpu.data 44473.684211                       # average SoftPFReq mshr miss latency
system.cpu.dcache.SoftPFReq_avg_mshr_miss_latency::total 44473.684211                       # average SoftPFReq mshr miss latency
system.cpu.dcache.LoadLockedReq_hits::.cpu.data        89080                       # number of LoadLockedReq hits
system.cpu.dcache.LoadLockedReq_hits::total        89080                       # number of LoadLockedReq hits
system.cpu.dcache.LoadLockedReq_accesses::.cpu.data        89080                       # number of LoadLockedReq accesses(hits+misses)
system.cpu.dcache.LoadLockedReq_accesses::total        89080                       # number of LoadLockedReq accesses(hits+misses)
system.cpu.dcache.StoreCondReq_hits::.cpu.data        89080                       # number of StoreCondReq hits
system.cpu.dcache.StoreCondReq_hits::total        89080                       # number of StoreCondReq hits
system.cpu.dcache.StoreCondReq_accesses::.cpu.data        89080                       # number of StoreCondReq accesses(hits+misses)
system.cpu.dcache.StoreCondReq_accesses::total        89080                       # number of StoreCondReq accesses(hits+misses)
system.cpu.dcache.power_state.pwrStateResidencyTicks::UNDEFINED 123718821000                       # Cumulative time (in ticks) in various power states
system.cpu.dcache.tags.tagsinuse           511.265136                       # Cycle average of tags in use
system.cpu.dcache.tags.total_refs            35844188                       # Total number of references to valid blocks.
system.cpu.dcache.tags.sampled_refs             63804                       # Sample count of references to valid blocks.
system.cpu.dcache.tags.avg_refs            561.785907                       # Average number of references to valid blocks.
system.cpu.dcache.tags.warmup_cycle            223000                       # Cycle when the warmup percentage was hit.
system.cpu.dcache.tags.occ_blocks::.cpu.data   511.265136                       # Average occupied blocks per requestor
system.cpu.dcache.tags.occ_percent::.cpu.data     0.998565                       # Average percentage of cache occupancy
system.cpu.dcache.tags.occ_percent::total     0.998565                       # Average percentage of cache occupancy
system.cpu.dcache.tags.occ_task_id_blocks::1024          512                       # Occupied blocks per task id
system.cpu.dcache.tags.age_task_id_blocks_1024::0            3                       # Occupied blocks per task id
system.cpu.dcache.tags.age_task_id_blocks_1024::1           29                       # Occupied blocks per task id
system.cpu.dcache.tags.age_task_id_blocks_1024::2          276                       # Occupied blocks per task id
system.cpu.dcache.tags.age_task_id_blocks_1024::3          173                       # Occupied blocks per task id
system.cpu.dcache.tags.age_task_id_blocks_1024::4           31                       # Occupied blocks per task id
system.cpu.dcache.tags.occ_task_id_percent::1024            1                       # Percentage of cache occupancy per task id
system.cpu.dcache.tags.tag_accesses          71799054                       # Number of tag accesses
system.cpu.dcache.tags.data_accesses         71799054                       # Number of data accesses
system.cpu.dcache.tags.power_state.pwrStateResidencyTicks::UNDEFINED 123718821000                       # Cumulative time (in ticks) in various power states
system.cpu.dtb.instHits                             0                       # ITB inst hits
system.cpu.dtb.instMisses                           0                       # ITB inst misses
system.cpu.dtb.readHits                             0                       # DTB read hits
system.cpu.dtb.readMisses                           0                       # DTB read misses
system.cpu.dtb.writeHits                            0                       # DTB write hits
system.cpu.dtb.writeMisses                          0                       # DTB write misses
system.cpu.dtb.inserts                              0                       # Number of times an entry is inserted into the TLB
system.cpu.dtb.flushTlb                             0                       # Number of times complete TLB was flushed
system.cpu.dtb.flushTlbMva                          0                       # Number of times TLB was flushed by MVA
system.cpu.dtb.flushTlbMvaAsid                      0                       # Number of times TLB was flushed by MVA & ASID
system.cpu.dtb.flushTlbAsid                         0                       # Number of times TLB was flushed by ASID
system.cpu.dtb.flushedEntries                       0                       # Number of entries that have been flushed from TLB
system.cpu.dtb.alignFaults                          0                       # Number of TLB faults due to alignment restrictions
system.cpu.dtb.prefetchFaults                       0                       # Number of TLB faults due to prefetch
system.cpu.dtb.domainFaults                         0                       # Number of TLB faults due to domain restrictions
system.cpu.dtb.permsFaults                          0                       # Number of TLB faults due to permissions restrictions
system.cpu.dtb.readAccesses                         0                       # DTB read accesses
system.cpu.dtb.writeAccesses                        0                       # DTB write accesses
system.cpu.dtb.instAccesses                         0                       # ITB inst accesses
system.cpu.dtb.hits                                 0                       # Total TLB (inst and data) hits
system.cpu.dtb.misses                               0                       # Total TLB (inst and data) misses
system.cpu.dtb.accesses                             0                       # Total TLB (inst and data) accesses
system.cpu.dtb.stage2_mmu.stage2_tlb.instHits            0                       # ITB inst hits
system.cpu.dtb.stage2_mmu.stage2_tlb.instMisses            0                       # ITB inst misses
system.cpu.dtb.stage2_mmu.stage2_tlb.readHits            0                       # DTB read hits
system.cpu.dtb.stage2_mmu.stage2_tlb.readMisses            0                       # DTB read misses
system.cpu.dtb.stage2_mmu.stage2_tlb.writeHits            0                       # DTB write hits
system.cpu.dtb.stage2_mmu.stage2_tlb.writeMisses            0                       # DTB write misses
system.cpu.dtb.stage2_mmu.stage2_tlb.inserts            0                       # Number of times an entry is inserted into the TLB
system.cpu.dtb.stage2_mmu.stage2_tlb.flushTlb            0                       # Number of times complete TLB was flushed
system.cpu.dtb.stage2_mmu.stage2_tlb.flushTlbMva            0                       # Number of times TLB was flushed by MVA
system.cpu.dtb.stage2_mmu.stage2_tlb.flushTlbMvaAsid            0                       # Number of times TLB was flushed by MVA & ASID
system.cpu.dtb.stage2_mmu.stage2_tlb.flushTlbAsid            0                       # Number of times TLB was flushed by ASID
system.cpu.dtb.stage2_mmu.stage2_tlb.flushedEntries            0                       # Number of entries that have been flushed from TLB
system.cpu.dtb.stage2_mmu.stage2_tlb.alignFaults            0                       # Number of TLB faults due to alignment restrictions
system.cpu.dtb.stage2_mmu.stage2_tlb.prefetchFaults            0                       # Number of TLB faults due to prefetch
system.cpu.dtb.stage2_mmu.stage2_tlb.domainFaults            0                       # Number of TLB faults due to domain restrictions
system.cpu.dtb.stage2_mmu.stage2_tlb.permsFaults            0                       # Number of TLB faults due to permissions restrictions
system.cpu.dtb.stage2_mmu.stage2_tlb.readAccesses            0                       # DTB read accesses
system.cpu.dtb.stage2_mmu.stage2_tlb.writeAccesses            0                       # DTB write accesses
system.cpu.dtb.stage2_mmu.stage2_tlb.instAccesses            0                       # ITB inst accesses
system.cpu.dtb.stage2_mmu.stage2_tlb.hits            0                       # Total TLB (inst and data) hits
system.cpu.dtb.stage2_mmu.stage2_tlb.misses            0                       # Total TLB (inst and data) misses
system.cpu.dtb.stage2_mmu.stage2_tlb.accesses            0                       # Total TLB (inst and data) accesses
system.cpu.dtb.stage2_mmu.stage2_tlb.walker.walks            0                       # Table walker walks requested
system.cpu.dtb.stage2_mmu.stage2_tlb.walker.requestOrigin_Requested::Data            0                       # Table walker requests started/completed, data/inst
system.cpu.dtb.stage2_mmu.stage2_tlb.walker.requestOrigin_Requested::Inst            0                       # Table walker requests started/completed, data/inst
system.cpu.dtb.stage2_mmu.stage2_tlb.walker.requestOrigin_Requested::total            0                       # Table walker requests started/completed, data/inst
system.cpu.dtb.stage2_mmu.stage2_tlb.walker.requestOrigin_Completed::Data            0                       # Table walker requests started/completed, data/inst
system.cpu.dtb.stage2_mmu.stage2_tlb.walker.requestOrigin_Completed::Inst            0                       # Table walker requests started/completed, data/inst
system.cpu.dtb.stage2_mmu.stage2_tlb.walker.requestOrigin_Completed::total            0                       # Table walker requests started/completed, data/inst
system.cpu.dtb.stage2_mmu.stage2_tlb.walker.requestOrigin::total            0                       # Table walker requests started/completed, data/inst
system.cpu.dtb.stage2_mmu.stage2_tlb.walker.power_state.pwrStateResidencyTicks::UNDEFINED 123718821000                       # Cumulative time (in ticks) in various power states
system.cpu.dtb.walker.walks                         0                       # Table walker walks requested
system.cpu.dtb.walker.requestOrigin_Requested::Data            0                       # Table walker requests started/completed, data/inst
system.cpu.dtb.walker.requestOrigin_Requested::Inst            0                       # Table walker requests started/completed, data/inst
system.cpu.dtb.walker.requestOrigin_Requested::total            0                       # Table walker requests started/completed, data/inst
system.cpu.dtb.walker.requestOrigin_Completed::Data            0                       # Table walker requests started/completed, data/inst
system.cpu.dtb.walker.requestOrigin_Completed::Inst            0                       # Table walker requests started/completed, data/inst
system.cpu.dtb.walker.requestOrigin_Completed::total            0                       # Table walker requests started/completed, data/inst
system.cpu.dtb.walker.requestOrigin::total            0                       # Table walker requests started/completed, data/inst
system.cpu.dtb.walker.power_state.pwrStateResidencyTicks::UNDEFINED 123718821000                       # Cumulative time (in ticks) in various power states
system.cpu.fetch2.intInstructions            49060761                       # Number of integer instructions successfully decoded
system.cpu.fetch2.fpInstructions                    0                       # Number of floating point instructions successfully decoded
system.cpu.fetch2.vecInstructions                   0                       # Number of SIMD instructions successfully decoded
system.cpu.fetch2.loadInstructions           17106515                       # Number of memory load instructions successfully decoded
system.cpu.fetch2.storeInstructions           9763916                       # Number of memory store instructions successfully decoded
system.cpu.fetch2.amoInstructions                   0                       # Number of memory atomic instructions successfully decoded
system.cpu.icache.demand_hits::.cpu.inst     27561208                       # number of demand (read+write) hits
system.cpu.icache.demand_hits::total         27561208                       # number of demand (read+write) hits
system.cpu.icache.overall_hits::.cpu.inst     27561208                       # number of overall hits
system.cpu.icache.overall_hits::total        27561208                       # number of overall hits
system.cpu.icache.demand_misses::.cpu.inst       535125                       # number of demand (read+write) misses
system.cpu.icache.demand_misses::total         535125                       # number of demand (read+write) misses
system.cpu.icache.overall_misses::.cpu.inst       535125                       # number of overall misses
system.cpu.icache.overall_misses::total        535125                       # number of overall misses
system.cpu.icache.demand_miss_latency::.cpu.inst  13956323000                       # number of demand (read+write) miss cycles
system.cpu.icache.demand_miss_latency::total  13956323000                       # number of demand (read+write) miss cycles
system.cpu.icache.overall_miss_latency::.cpu.inst  13956323000                       # number of overall miss cycles
system.cpu.icache.overall_miss_latency::total  13956323000                       # number of overall miss cycles
system.cpu.icache.demand_accesses::.cpu.inst     28096333                       # number of demand (read+write) accesses
system.cpu.icache.demand_accesses::total     28096333                       # number of demand (read+write) accesses
system.cpu.icache.overall_accesses::.cpu.inst     28096333                       # number of overall (read+write) accesses
system.cpu.icache.overall_accesses::total     28096333                       # number of overall (read+write) accesses
system.cpu.icache.demand_miss_rate::.cpu.inst     0.019046                       # miss rate for demand accesses
system.cpu.icache.demand_miss_rate::total     0.019046                       # miss rate for demand accesses
system.cpu.icache.overall_miss_rate::.cpu.inst     0.019046                       # miss rate for overall accesses
system.cpu.icache.overall_miss_rate::total     0.019046                       # miss rate for overall accesses
system.cpu.icache.demand_avg_miss_latency::.cpu.inst 26080.491474                       # average overall miss latency
system.cpu.icache.demand_avg_miss_latency::total 26080.491474                       # average overall miss latency
system.cpu.icache.overall_avg_miss_latency::.cpu.inst 26080.491474                       # average overall miss latency
system.cpu.icache.overall_avg_miss_latency::total 26080.491474                       # average overall miss latency
system.cpu.icache.blocked_cycles::no_mshrs            0                       # number of cycles access was blocked
system.cpu.icache.blocked_cycles::no_targets            0                       # number of cycles access was blocked
system.cpu.icache.blocked::no_mshrs                 0                       # number of cycles access was blocked
system.cpu.icache.blocked::no_targets               0                       # number of cycles access was blocked
system.cpu.icache.avg_blocked_cycles::no_mshrs          nan                       # average number of cycles each access was blocked
system.cpu.icache.avg_blocked_cycles::no_targets          nan                       # average number of cycles each access was blocked
system.cpu.icache.writebacks::.writebacks       534723                       # number of writebacks
system.cpu.icache.writebacks::total            534723                       # number of writebacks
system.cpu.icache.demand_mshr_misses::.cpu.inst       535125                       # number of demand (read+write) MSHR misses
system.cpu.icache.demand_mshr_misses::total       535125                       # number of demand (read+write) MSHR misses
system.cpu.icache.overall_mshr_misses::.cpu.inst       535125                       # number of overall MSHR misses
system.cpu.icache.overall_mshr_misses::total       535125                       # number of overall MSHR misses
system.cpu.icache.demand_mshr_miss_latency::.cpu.inst  12886073000                       # number of demand (read+write) MSHR miss cycles
system.cpu.icache.demand_mshr_miss_latency::total  12886073000                       # number of demand (read+write) MSHR miss cycles
system.cpu.icache.overall_mshr_miss_latency::.cpu.inst  12886073000                       # number of overall MSHR miss cycles
system.cpu.icache.overall_mshr_miss_latency::total  12886073000                       # number of overall MSHR miss cycles
system.cpu.icache.demand_mshr_miss_rate::.cpu.inst     0.019046                       # mshr miss rate for demand accesses
system.cpu.icache.demand_mshr_miss_rate::total     0.019046                       # mshr miss rate for demand accesses
system.cpu.icache.overall_mshr_miss_rate::.cpu.inst     0.019046                       # mshr miss rate for overall accesses
system.cpu.icache.overall_mshr_miss_rate::total     0.019046                       # mshr miss rate for overall accesses
system.cpu.icache.demand_avg_mshr_miss_latency::.cpu.inst 24080.491474                       # average overall mshr miss latency
system.cpu.icache.demand_avg_mshr_miss_latency::total 24080.491474                       # average overall mshr miss latency
system.cpu.icache.overall_avg_mshr_miss_latency::.cpu.inst 24080.491474                       # average overall mshr miss latency
system.cpu.icache.overall_avg_mshr_miss_latency::total 24080.491474                       # average overall mshr miss latency
system.cpu.icache.replacements                 534723                       # number of replacements
system.cpu.icache.ReadReq_hits::.cpu.inst     27561208                       # number of ReadReq hits
system.cpu.icache.ReadReq_hits::total        27561208                       # number of ReadReq hits
system.cpu.icache.ReadReq_misses::.cpu.inst       535125                       # number of ReadReq misses
system.cpu.icache.ReadReq_misses::total        535125                       # number of ReadReq misses
system.cpu.icache.ReadReq_miss_latency::.cpu.inst  13956323000                       # number of ReadReq miss cycles
system.cpu.icache.ReadReq_miss_latency::total  13956323000                       # number of ReadReq miss cycles
system.cpu.icache.ReadReq_accesses::.cpu.inst     28096333                       # number of ReadReq accesses(hits+misses)
system.cpu.icache.ReadReq_accesses::total     28096333                       # number of ReadReq accesses(hits+misses)
system.cpu.icache.ReadReq_miss_rate::.cpu.inst     0.019046                       # miss rate for ReadReq accesses
system.cpu.icache.ReadReq_miss_rate::total     0.019046                       # miss rate for ReadReq accesses
system.cpu.icache.ReadReq_avg_miss_latency::.cpu.inst 26080.491474                       # average ReadReq miss latency
system.cpu.icache.ReadReq_avg_miss_latency::total 26080.491474                       # average ReadReq miss latency
system.cpu.icache.ReadReq_mshr_misses::.cpu.inst       535125                       # number of ReadReq MSHR misses
system.cpu.icache.ReadReq_mshr_misses::total       535125                       # number of ReadReq MSHR misses
system.cpu.icache.ReadReq_mshr_miss_latency::.cpu.inst  12886073000                       # number of ReadReq MSHR miss cycles
system.cpu.icache.ReadReq_mshr_miss_latency::total  12886073000                       # number of ReadReq MSHR miss cycles
system.cpu.icache.ReadReq_mshr_miss_rate::.cpu.inst     0.019046                       # mshr miss rate for ReadReq accesses
system.cpu.icache.ReadReq_mshr_miss_rate::total     0.019046                       # mshr miss rate for ReadReq accesses
system.cpu.icache.ReadReq_avg_mshr_miss_latency::.cpu.inst 24080.491474                       # average ReadReq mshr miss latency
system.cpu.icache.ReadReq_avg_mshr_miss_latency::total 24080.491474                       # average ReadReq mshr miss latency
system.cpu.icache.power_state.pwrStateResidencyTicks::UNDEFINED 123718821000                       # Cumulative time (in ticks) in various power states
system.cpu.icache.tags.tagsinuse           401.833426                       # Cycle average of tags in use
system.cpu.icache.tags.total_refs            28096333                       # Total number of references to valid blocks.
system.cpu.icache.tags.sampled_refs            535125                       # Sample count of references to valid blocks.
system.cpu.icache.tags.avg_refs             52.504243                       # Average number of references to valid blocks.
system.cpu.icache.tags.warmup_cycle            108000                       # Cycle when the warmup percentage was hit.
system.cpu.icache.tags.occ_blocks::.cpu.inst   401.833426                       # Average occupied blocks per requestor
system.cpu.icache.tags.occ_percent::.cpu.inst     0.784831                       # Average percentage of cache occupancy
system.cpu.icache.tags.occ_percent::total     0.784831                       # Average percentage of cache occupancy
system.cpu.icache.tags.occ_task_id_blocks::1024          402                       # Occupied blocks per task id
system.cpu.icache.tags.age_task_id_blocks_1024::0            8                       # Occupied blocks per task id
system.cpu.icache.tags.age_task_id_blocks_1024::3            3                       # Occupied blocks per task id
system.cpu.icache.tags.age_task_id_blocks_1024::4          391                       # Occupied blocks per task id
system.cpu.icache.tags.occ_task_id_percent::1024     0.785156                       # Percentage of cache occupancy per task id
system.cpu.icache.tags.tag_accesses          56727791                       # Number of tag accesses
system.cpu.icache.tags.data_accesses         56727791                       # Number of data accesses
system.cpu.icache.tags.power_state.pwrStateResidencyTicks::UNDEFINED 123718821000                       # Cumulative time (in ticks) in various power states
system.cpu.itb.instHits                             0                       # ITB inst hits
system.cpu.itb.instMisses                           0                       # ITB inst misses
system.cpu.itb.readHits                             0                       # DTB read hits
system.cpu.itb.readMisses                           0                       # DTB read misses
system.cpu.itb.writeHits                            0                       # DTB write hits
system.cpu.itb.writeMisses                          0                       # DTB write misses
system.cpu.itb.inserts                              0                       # Number of times an entry is inserted into the TLB
system.cpu.itb.flushTlb                             0                       # Number of times complete TLB was flushed
system.cpu.itb.flushTlbMva                          0                       # Number of times TLB was flushed by MVA
system.cpu.itb.flushTlbMvaAsid                      0                       # Number of times TLB was flushed by MVA & ASID
system.cpu.itb.flushTlbAsid                         0                       # Number of times TLB was flushed by ASID
system.cpu.itb.flushedEntries                       0                       # Number of entries that have been flushed from TLB
system.cpu.itb.alignFaults                          0                       # Number of TLB faults due to alignment restrictions
system.cpu.itb.prefetchFaults                       0                       # Number of TLB faults due to prefetch
system.cpu.itb.domainFaults                         0                       # Number of TLB faults due to domain restrictions
system.cpu.itb.permsFaults                          0                       # Number of TLB faults due to permissions restrictions
system.cpu.itb.readAccesses                         0                       # DTB read accesses
system.cpu.itb.writeAccesses                        0                       # DTB write accesses
system.cpu.itb.instAccesses                         0                       # ITB inst accesses
system.cpu.itb.hits                                 0                       # Total TLB (inst and data) hits
system.cpu.itb.misses                               0                       # Total TLB (inst and data) misses
system.cpu.itb.accesses                             0                       # Total TLB (inst and data) accesses
system.cpu.itb.stage2_mmu.stage2_tlb.instHits            0                       # ITB inst hits
system.cpu.itb.stage2_mmu.stage2_tlb.instMisses            0                       # ITB inst misses
system.cpu.itb.stage2_mmu.stage2_tlb.readHits            0                       # DTB read hits
system.cpu.itb.stage2_mmu.stage2_tlb.readMisses            0                       # DTB read misses
system.cpu.itb.stage2_mmu.stage2_tlb.writeHits            0                       # DTB write hits
system.cpu.itb.stage2_mmu.stage2_tlb.writeMisses            0                       # DTB write misses
system.cpu.itb.stage2_mmu.stage2_tlb.inserts            0                       # Number of times an entry is inserted into the TLB
system.cpu.itb.stage2_mmu.stage2_tlb.flushTlb            0                       # Number of times complete TLB was flushed
system.cpu.itb.stage2_mmu.stage2_tlb.flushTlbMva            0                       # Number of times TLB was flushed by MVA
system.cpu.itb.stage2_mmu.stage2_tlb.flushTlbMvaAsid            0                       # Number of times TLB was flushed by MVA & ASID
system.cpu.itb.stage2_mmu.stage2_tlb.flushTlbAsid            0                       # Number of times TLB was flushed by ASID
system.cpu.itb.stage2_mmu.stage2_tlb.flushedEntries            0                       # Number of entries that have been flushed from TLB
system.cpu.itb.stage2_mmu.stage2_tlb.alignFaults            0                       # Number of TLB faults due to alignment restrictions
system.cpu.itb.stage2_mmu.stage2_tlb.prefetchFaults            0                       # Number of TLB faults due to prefetch
system.cpu.itb.stage2_mmu.stage2_tlb.domainFaults            0                       # Number of TLB faults due to domain restrictions
system.cpu.itb.stage2_mmu.stage2_tlb.permsFaults            0                       # Number of TLB faults due to permissions restrictions
system.cpu.itb.stage2_mmu.stage2_tlb.readAccesses            0                       # DTB read accesses
system.cpu.itb.stage2_mmu.stage2_tlb.writeAccesses            0                       # DTB write accesses
system.cpu.itb.stage2_mmu.stage2_tlb.instAccesses            0                       # ITB inst accesses
system.cpu.itb.stage2_mmu.stage2_tlb.hits            0                       # Total TLB (inst and data) hits
system.cpu.itb.stage2_mmu.stage2_tlb.misses            0                       # Total TLB (inst and data) misses
system.cpu.itb.stage2_mmu.stage2_tlb.accesses            0                       # Total TLB (inst and data) accesses
system.cpu.itb.stage2_mmu.stage2_tlb.walker.walks            0                       # Table walker walks requested
system.cpu.itb.stage2_mmu.stage2_tlb.walker.requestOrigin_Requested::Data            0                       # Table walker requests started/completed, data/inst
system.cpu.itb.stage2_mmu.stage2_tlb.walker.requestOrigin_Requested::Inst            0                       # Table walker requests started/completed, data/inst
system.cpu.itb.stage2_mmu.stage2_tlb.walker.requestOrigin_Requested::total            0                       # Table walker requests started/completed, data/inst
system.cpu.itb.stage2_mmu.stage2_tlb.walker.requestOrigin_Completed::Data            0                       # Table walker requests started/completed, data/inst
system.cpu.itb.stage2_mmu.stage2_tlb.walker.requestOrigin_Completed::Inst            0                       # Table walker requests started/completed, data/inst
system.cpu.itb.stage2_mmu.stage2_tlb.walker.requestOrigin_Completed::total            0                       # Table walker requests started/completed, data/inst
system.cpu.itb.stage2_mmu.stage2_tlb.walker.requestOrigin::total            0                       # Table walker requests started/completed, data/inst
system.cpu.itb.stage2_mmu.stage2_tlb.walker.power_state.pwrStateResidencyTicks::UNDEFINED 123718821000                       # Cumulative time (in ticks) in various power states
system.cpu.itb.walker.walks                         0                       # Table walker walks requested
system.cpu.itb.walker.requestOrigin_Requested::Data            0                       # Table walker requests started/completed, data/inst
system.cpu.itb.walker.requestOrigin_Requested::Inst            0                       # Table walker requests started/completed, data/inst
system.cpu.itb.walker.requestOrigin_Requested::total            0                       # Table walker requests started/completed, data/inst
system.cpu.itb.walker.requestOrigin_Completed::Data            0                       # Table walker requests started/completed, data/inst
system.cpu.itb.walker.requestOrigin_Completed::Inst            0                       # Table walker requests started/completed, data/inst
system.cpu.itb.walker.requestOrigin_Completed::total            0                       # Table walker requests started/completed, data/inst
system.cpu.itb.walker.requestOrigin::total            0                       # Table walker requests started/completed, data/inst
system.cpu.itb.walker.power_state.pwrStateResidencyTicks::UNDEFINED 123718821000                       # Cumulative time (in ticks) in various power states
system.cpu.power_state.pwrStateResidencyTicks::ON 123718821000                       # Cumulative time (in ticks) in various power states
system.cpu.thread0.numInsts                 100000001                       # Number of Instructions committed
system.cpu.thread0.numOps                   109431277                       # Number of Ops committed
system.cpu.thread0.numMemRefs                       0                       # Number of Memory References
system.cpu_clk_domain.clock                      1000                       # Clock period in ticks
system.cpu_voltage_domain.voltage                   1                       # Voltage in Volts
system.l2.demand_hits::.cpu.inst               534601                       # number of demand (read+write) hits
system.l2.demand_hits::.cpu.data                21366                       # number of demand (read+write) hits
system.l2.demand_hits::total                   555967                       # number of demand (read+write) hits
system.l2.overall_hits::.cpu.inst              534601                       # number of overall hits
system.l2.overall_hits::.cpu.data               21366                       # number of overall hits
system.l2.overall_hits::total                  555967                       # number of overall hits
system.l2.demand_misses::.cpu.inst                524                       # number of demand (read+write) misses
system.l2.demand_misses::.cpu.data              42438                       # number of demand (read+write) misses
system.l2.demand_misses::total                  42962                       # number of demand (read+write) misses
system.l2.overall_misses::.cpu.inst               524                       # number of overall misses
system.l2.overall_misses::.cpu.data             42438                       # number of overall misses
system.l2.overall_misses::total                 42962                       # number of overall misses
system.l2.demand_miss_latency::.cpu.inst     51211000                       # number of demand (read+write) miss cycles
system.l2.demand_miss_latency::.cpu.data   4495419000                       # number of demand (read+write) miss cycles
system.l2.demand_miss_latency::total       4546630000                       # number of demand (read+write) miss cycles
system.l2.overall_miss_latency::.cpu.inst     51211000                       # number of overall miss cycles
system.l2.overall_miss_latency::.cpu.data   4495419000                       # number of overall miss cycles
system.l2.overall_miss_latency::total      4546630000                       # number of overall miss cycles
system.l2.demand_accesses::.cpu.inst           535125                       # number of demand (read+write) accesses
system.l2.demand_accesses::.cpu.data            63804                       # number of demand (read+write) accesses
system.l2.demand_accesses::total               598929                       # number of demand (read+write) accesses
system.l2.overall_accesses::.cpu.inst          535125                       # number of overall (read+write) accesses
system.l2.overall_accesses::.cpu.data           63804                       # number of overall (read+write) accesses
system.l2.overall_accesses::total              598929                       # number of overall (read+write) accesses
system.l2.demand_miss_rate::.cpu.inst        0.000979                       # miss rate for demand accesses
system.l2.demand_miss_rate::.cpu.data        0.665131                       # miss rate for demand accesses
system.l2.demand_miss_rate::total            0.071731                       # miss rate for demand accesses
system.l2.overall_miss_rate::.cpu.inst       0.000979                       # miss rate for overall accesses
system.l2.overall_miss_rate::.cpu.data       0.665131                       # miss rate for overall accesses
system.l2.overall_miss_rate::total           0.071731                       # miss rate for overall accesses
system.l2.demand_avg_miss_latency::.cpu.inst 97730.916031                       # average overall miss latency
system.l2.demand_avg_miss_latency::.cpu.data 105929.096564                       # average overall miss latency
system.l2.demand_avg_miss_latency::total 105829.104790                       # average overall miss latency
system.l2.overall_avg_miss_latency::.cpu.inst 97730.916031                       # average overall miss latency
system.l2.overall_avg_miss_latency::.cpu.data 105929.096564                       # average overall miss latency
system.l2.overall_avg_miss_latency::total 105829.104790                       # average overall miss latency
system.l2.blocked_cycles::no_mshrs                  0                       # number of cycles access was blocked
system.l2.blocked_cycles::no_targets                0                       # number of cycles access was blocked
system.l2.blocked::no_mshrs                         0                       # number of cycles access was blocked
system.l2.blocked::no_targets                       0                       # number of cycles access was blocked
system.l2.avg_blocked_cycles::no_mshrs            nan                       # average number of cycles each access was blocked
system.l2.avg_blocked_cycles::no_targets          nan                       # average number of cycles each access was blocked
system.l2.writebacks::.writebacks               25976                       # number of writebacks
system.l2.writebacks::total                     25976                       # number of writebacks
system.l2.demand_mshr_hits::.cpu.inst               1                       # number of demand (read+write) MSHR hits
system.l2.demand_mshr_hits::.cpu.data               5                       # number of demand (read+write) MSHR hits
system.l2.demand_mshr_hits::total                   6                       # number of demand (read+write) MSHR hits
system.l2.overall_mshr_hits::.cpu.inst              1                       # number of overall MSHR hits
system.l2.overall_mshr_hits::.cpu.data              5                       # number of overall MSHR hits
system.l2.overall_mshr_hits::total                  6                       # number of overall MSHR hits
system.l2.demand_mshr_misses::.cpu.inst           523                       # number of demand (read+write) MSHR misses
system.l2.demand_mshr_misses::.cpu.data         42433                       # number of demand (read+write) MSHR misses
system.l2.demand_mshr_misses::total             42956                       # number of demand (read+write) MSHR misses
system.l2.overall_mshr_misses::.cpu.inst          523                       # number of overall MSHR misses
system.l2.overall_mshr_misses::.cpu.data        42433                       # number of overall MSHR misses
system.l2.overall_mshr_misses::total            42956                       # number of overall MSHR misses
system.l2.demand_mshr_miss_latency::.cpu.inst     40671000                       # number of demand (read+write) MSHR miss cycles
system.l2.demand_mshr_miss_latency::.cpu.data   3646353000                       # number of demand (read+write) MSHR miss cycles
system.l2.demand_mshr_miss_latency::total   3687024000                       # number of demand (read+write) MSHR miss cycles
system.l2.overall_mshr_miss_latency::.cpu.inst     40671000                       # number of overall MSHR miss cycles
system.l2.overall_mshr_miss_latency::.cpu.data   3646353000                       # number of overall MSHR miss cycles
system.l2.overall_mshr_miss_latency::total   3687024000                       # number of overall MSHR miss cycles
system.l2.demand_mshr_miss_rate::.cpu.inst     0.000977                       # mshr miss rate for demand accesses
system.l2.demand_mshr_miss_rate::.cpu.data     0.665052                       # mshr miss rate for demand accesses
system.l2.demand_mshr_miss_rate::total       0.071721                       # mshr miss rate for demand accesses
system.l2.overall_mshr_miss_rate::.cpu.inst     0.000977                       # mshr miss rate for overall accesses
system.l2.overall_mshr_miss_rate::.cpu.data     0.665052                       # mshr miss rate for overall accesses
system.l2.overall_mshr_miss_rate::total      0.071721                       # mshr miss rate for overall accesses
system.l2.demand_avg_mshr_miss_latency::.cpu.inst 77764.818356                       # average overall mshr miss latency
system.l2.demand_avg_mshr_miss_latency::.cpu.data 85932.010464                       # average overall mshr miss latency
system.l2.demand_avg_mshr_miss_latency::total 85832.572865                       # average overall mshr miss latency
system.l2.overall_avg_mshr_miss_latency::.cpu.inst 77764.818356                       # average overall mshr miss latency
system.l2.overall_avg_mshr_miss_latency::.cpu.data 85932.010464                       # average overall mshr miss latency
system.l2.overall_avg_mshr_miss_latency::total 85832.572865                       # average overall mshr miss latency
system.l2.replacements                          26593                       # number of replacements
system.l2.WritebackDirty_hits::.writebacks        54028                       # number of WritebackDirty hits
system.l2.WritebackDirty_hits::total            54028                       # number of WritebackDirty hits
system.l2.WritebackDirty_accesses::.writebacks        54028                       # number of WritebackDirty accesses(hits+misses)
system.l2.WritebackDirty_accesses::total        54028                       # number of WritebackDirty accesses(hits+misses)
system.l2.WritebackClean_hits::.writebacks       534716                       # number of WritebackClean hits
system.l2.WritebackClean_hits::total           534716                       # number of WritebackClean hits
system.l2.WritebackClean_accesses::.writebacks       534716                       # number of WritebackClean accesses(hits+misses)
system.l2.WritebackClean_accesses::total       534716                       # number of WritebackClean accesses(hits+misses)
system.l2.CleanEvict_mshr_misses::.writebacks           10                       # number of CleanEvict MSHR misses
system.l2.CleanEvict_mshr_misses::total            10                       # number of CleanEvict MSHR misses
system.l2.CleanEvict_mshr_miss_rate::.writebacks          inf                       # mshr miss rate for CleanEvict accesses
system.l2.CleanEvict_mshr_miss_rate::total          inf                       # mshr miss rate for CleanEvict accesses
system.l2.ReadExReq_hits::.cpu.data               233                       # number of ReadExReq hits
system.l2.ReadExReq_hits::total                   233                       # number of ReadExReq hits
system.l2.ReadExReq_misses::.cpu.data           38810                       # number of ReadExReq misses
system.l2.ReadExReq_misses::total               38810                       # number of ReadExReq misses
system.l2.ReadExReq_miss_latency::.cpu.data   4096551000                       # number of ReadExReq miss cycles
system.l2.ReadExReq_miss_latency::total    4096551000                       # number of ReadExReq miss cycles
system.l2.ReadExReq_accesses::.cpu.data         39043                       # number of ReadExReq accesses(hits+misses)
system.l2.ReadExReq_accesses::total             39043                       # number of ReadExReq accesses(hits+misses)
system.l2.ReadExReq_miss_rate::.cpu.data     0.994032                       # miss rate for ReadExReq accesses
system.l2.ReadExReq_miss_rate::total         0.994032                       # miss rate for ReadExReq accesses
system.l2.ReadExReq_avg_miss_latency::.cpu.data 105554.006699                       # average ReadExReq miss latency
system.l2.ReadExReq_avg_miss_latency::total 105554.006699                       # average ReadExReq miss latency
system.l2.ReadExReq_mshr_misses::.cpu.data        38810                       # number of ReadExReq MSHR misses
system.l2.ReadExReq_mshr_misses::total          38810                       # number of ReadExReq MSHR misses
system.l2.ReadExReq_mshr_miss_latency::.cpu.data   3320351000                       # number of ReadExReq MSHR miss cycles
system.l2.ReadExReq_mshr_miss_latency::total   3320351000                       # number of ReadExReq MSHR miss cycles
system.l2.ReadExReq_mshr_miss_rate::.cpu.data     0.994032                       # mshr miss rate for ReadExReq accesses
system.l2.ReadExReq_mshr_miss_rate::total     0.994032                       # mshr miss rate for ReadExReq accesses
system.l2.ReadExReq_avg_mshr_miss_latency::.cpu.data 85554.006699                       # average ReadExReq mshr miss latency
system.l2.ReadExReq_avg_mshr_miss_latency::total 85554.006699                       # average ReadExReq mshr miss latency
system.l2.ReadCleanReq_hits::.cpu.inst         534601                       # number of ReadCleanReq hits
system.l2.ReadCleanReq_hits::total             534601                       # number of ReadCleanReq hits
system.l2.ReadCleanReq_misses::.cpu.inst          524                       # number of ReadCleanReq misses
system.l2.ReadCleanReq_misses::total              524                       # number of ReadCleanReq misses
system.l2.ReadCleanReq_miss_latency::.cpu.inst     51211000                       # number of ReadCleanReq miss cycles
system.l2.ReadCleanReq_miss_latency::total     51211000                       # number of ReadCleanReq miss cycles
system.l2.ReadCleanReq_accesses::.cpu.inst       535125                       # number of ReadCleanReq accesses(hits+misses)
system.l2.ReadCleanReq_accesses::total         535125                       # number of ReadCleanReq accesses(hits+misses)
system.l2.ReadCleanReq_miss_rate::.cpu.inst     0.000979                       # miss rate for ReadCleanReq accesses
system.l2.ReadCleanReq_miss_rate::total      0.000979                       # miss rate for ReadCleanReq accesses
system.l2.ReadCleanReq_avg_miss_latency::.cpu.inst 97730.916031                       # average ReadCleanReq miss latency
system.l2.ReadCleanReq_avg_miss_latency::total 97730.916031                       # average ReadCleanReq miss latency
system.l2.ReadCleanReq_mshr_hits::.cpu.inst            1                       # number of ReadCleanReq MSHR hits
system.l2.ReadCleanReq_mshr_hits::total             1                       # number of ReadCleanReq MSHR hits
system.l2.ReadCleanReq_mshr_misses::.cpu.inst          523                       # number of ReadCleanReq MSHR misses
system.l2.ReadCleanReq_mshr_misses::total          523                       # number of ReadCleanReq MSHR misses
system.l2.ReadCleanReq_mshr_miss_latency::.cpu.inst     40671000                       # number of ReadCleanReq MSHR miss cycles
system.l2.ReadCleanReq_mshr_miss_latency::total     40671000                       # number of ReadCleanReq MSHR miss cycles
system.l2.ReadCleanReq_mshr_miss_rate::.cpu.inst     0.000977                       # mshr miss rate for ReadCleanReq accesses
system.l2.ReadCleanReq_mshr_miss_rate::total     0.000977                       # mshr miss rate for ReadCleanReq accesses
system.l2.ReadCleanReq_avg_mshr_miss_latency::.cpu.inst 77764.818356                       # average ReadCleanReq mshr miss latency
system.l2.ReadCleanReq_avg_mshr_miss_latency::total 77764.818356                       # average ReadCleanReq mshr miss latency
system.l2.ReadSharedReq_hits::.cpu.data         21133                       # number of ReadSharedReq hits
system.l2.ReadSharedReq_hits::total             21133                       # number of ReadSharedReq hits
system.l2.ReadSharedReq_misses::.cpu.data         3628                       # number of ReadSharedReq misses
system.l2.ReadSharedReq_misses::total            3628                       # number of ReadSharedReq misses
system.l2.ReadSharedReq_miss_latency::.cpu.data    398868000                       # number of ReadSharedReq miss cycles
system.l2.ReadSharedReq_miss_latency::total    398868000                       # number of ReadSharedReq miss cycles
system.l2.ReadSharedReq_accesses::.cpu.data        24761                       # number of ReadSharedReq accesses(hits+misses)
system.l2.ReadSharedReq_accesses::total         24761                       # number of ReadSharedReq accesses(hits+misses)
system.l2.ReadSharedReq_miss_rate::.cpu.data     0.146521                       # miss rate for ReadSharedReq accesses
system.l2.ReadSharedReq_miss_rate::total     0.146521                       # miss rate for ReadSharedReq accesses
system.l2.ReadSharedReq_avg_miss_latency::.cpu.data 109941.565601                       # average ReadSharedReq miss latency
system.l2.ReadSharedReq_avg_miss_latency::total 109941.565601                       # average ReadSharedReq miss latency
system.l2.ReadSharedReq_mshr_hits::.cpu.data            5                       # number of ReadSharedReq MSHR hits
system.l2.ReadSharedReq_mshr_hits::total            5                       # number of ReadSharedReq MSHR hits
system.l2.ReadSharedReq_mshr_misses::.cpu.data         3623                       # number of ReadSharedReq MSHR misses
system.l2.ReadSharedReq_mshr_misses::total         3623                       # number of ReadSharedReq MSHR misses
system.l2.ReadSharedReq_mshr_miss_latency::.cpu.data    326002000                       # number of ReadSharedReq MSHR miss cycles
system.l2.ReadSharedReq_mshr_miss_latency::total    326002000                       # number of ReadSharedReq MSHR miss cycles
system.l2.ReadSharedReq_mshr_miss_rate::.cpu.data     0.146319                       # mshr miss rate for ReadSharedReq accesses
system.l2.ReadSharedReq_mshr_miss_rate::total     0.146319                       # mshr miss rate for ReadSharedReq accesses
system.l2.ReadSharedReq_avg_mshr_miss_latency::.cpu.data 89981.231024                       # average ReadSharedReq mshr miss latency
system.l2.ReadSharedReq_avg_mshr_miss_latency::total 89981.231024                       # average ReadSharedReq mshr miss latency
system.l2.power_state.pwrStateResidencyTicks::UNDEFINED 123718821000                       # Cumulative time (in ticks) in various power states
system.l2.tags.tagsinuse                 15586.552649                       # Cycle average of tags in use
system.l2.tags.total_refs                     1196887                       # Total number of references to valid blocks.
system.l2.tags.sampled_refs                     42977                       # Sample count of references to valid blocks.
system.l2.tags.avg_refs                     27.849478                       # Average number of references to valid blocks.
system.l2.tags.warmup_cycle                     87000                       # Cycle when the warmup percentage was hit.
system.l2.tags.occ_blocks::.writebacks       9.635980                       # Average occupied blocks per requestor
system.l2.tags.occ_blocks::.cpu.inst        68.636332                       # Average occupied blocks per requestor
system.l2.tags.occ_blocks::.cpu.data     15508.280336                       # Average occupied blocks per requestor
system.l2.tags.occ_percent::.writebacks      0.000588                       # Average percentage of cache occupancy
system.l2.tags.occ_percent::.cpu.inst        0.004189                       # Average percentage of cache occupancy
system.l2.tags.occ_percent::.cpu.data        0.946550                       # Average percentage of cache occupancy
system.l2.tags.occ_percent::total            0.951328                       # Average percentage of cache occupancy
system.l2.tags.occ_task_id_blocks::1024         16384                       # Occupied blocks per task id
system.l2.tags.age_task_id_blocks_1024::0            1                       # Occupied blocks per task id
system.l2.tags.age_task_id_blocks_1024::1           16                       # Occupied blocks per task id
system.l2.tags.age_task_id_blocks_1024::2          208                       # Occupied blocks per task id
system.l2.tags.age_task_id_blocks_1024::3         2262                       # Occupied blocks per task id
system.l2.tags.age_task_id_blocks_1024::4        13897                       # Occupied blocks per task id
system.l2.tags.occ_task_id_percent::1024            1                       # Percentage of cache occupancy per task id
system.l2.tags.tag_accesses                   9618201                       # Number of tag accesses
system.l2.tags.data_accesses                  9618201                       # Number of data accesses
system.l2.tags.power_state.pwrStateResidencyTicks::UNDEFINED 123718821000                       # Cumulative time (in ticks) in various power states
system.mem_ctrls.avgPriority_.writebacks::samples     25976.00                       # Average QoS priority value for accepted requests
system.mem_ctrls.avgPriority_.cpu.inst::samples       523.00                       # Average QoS priority value for accepted requests
system.mem_ctrls.avgPriority_.cpu.data::samples     42429.00                       # Average QoS priority value for accepted requests
system.mem_ctrls.priorityMinLatency      0.000000018750                       # per QoS priority minimum request to response latency (s)
system.mem_ctrls.priorityMaxLatency      0.003360943750                       # per QoS priority maximum request to response latency (s)
system.mem_ctrls.numReadWriteTurnArounds         1447                       # Number of turnarounds from READ to WRITE
system.mem_ctrls.numWriteReadTurnArounds         1447                       # Number of turnarounds from WRITE to READ
system.mem_ctrls.numStayReadState              143421                       # Number of times bus staying in READ state
system.mem_ctrls.numStayWriteState              24579                       # Number of times bus staying in WRITE state
system.mem_ctrls.readReqs                       42956                       # Number of read requests accepted
system.mem_ctrls.writeReqs                      25976                       # Number of write requests accepted
system.mem_ctrls.readBursts                     42956                       # Number of controller read bursts, including those serviced by the write queue
system.mem_ctrls.writeBursts                    25976                       # Number of controller write bursts, including those merged in the write queue
system.mem_ctrls.servicedByWrQ                      4                       # Number of controller read bursts serviced by the write queue
system.mem_ctrls.mergedWrBursts                     0                       # Number of controller write bursts merged with an existing one
system.mem_ctrls.neitherReadNorWriteReqs            0                       # Number of requests that are neither read nor write
system.mem_ctrls.avgRdQLen                       1.03                       # Average read queue length when enqueuing
system.mem_ctrls.avgWrQLen                      22.17                       # Average write queue length when enqueuing
system.mem_ctrls.numRdRetry                         0                       # Number of times read queue was full causing retry
system.mem_ctrls.numWrRetry                         0                       # Number of times write queue was full causing retry
system.mem_ctrls.readPktSize::0                     0                       # Read request sizes (log2)
system.mem_ctrls.readPktSize::1                     0                       # Read request sizes (log2)
system.mem_ctrls.readPktSize::2                     0                       # Read request sizes (log2)
system.mem_ctrls.readPktSize::3                     0                       # Read request sizes (log2)
system.mem_ctrls.readPktSize::4                     0                       # Read request sizes (log2)
system.mem_ctrls.readPktSize::5                     0                       # Read request sizes (log2)
system.mem_ctrls.readPktSize::6                 42956                       # Read request sizes (log2)
system.mem_ctrls.writePktSize::0                    0                       # Write request sizes (log2)
system.mem_ctrls.writePktSize::1                    0                       # Write request sizes (log2)
system.mem_ctrls.writePktSize::2                    0                       # Write request sizes (log2)
system.mem_ctrls.writePktSize::3                    0                       # Write request sizes (log2)
system.mem_ctrls.writePktSize::4                    0                       # Write request sizes (log2)
system.mem_ctrls.writePktSize::5                    0                       # Write request sizes (log2)
system.mem_ctrls.writePktSize::6                25976                       # Write request sizes (log2)
system.mem_ctrls.rdQLenPdf::0                   42032                       # What read queue length does an incoming req see
system.mem_ctrls.rdQLenPdf::1                     914                       # What read queue length does an incoming req see
[...]
system.mem_ctrls.dram.bw_write::.writebacks     13437438                       # Write bandwidth from this memory (bytes/s)
system.mem_ctrls.dram.bw_write::total        13437438                       # Write bandwidth from this memory (bytes/s)
system.mem_ctrls.dram.bw_total::.writebacks     13437438                       # Total bandwidth to/from this memory (bytes/s)
system.mem_ctrls.dram.bw_total::.cpu.inst       270549                       # Total bandwidth to/from this memory (bytes/s)
system.mem_ctrls.dram.bw_total::.cpu.data     21950678                       # Total bandwidth to/from this memory (bytes/s)
system.mem_ctrls.dram.bw_total::total        35658665                       # Total bandwidth to/from this memory (bytes/s)
system.mem_ctrls.dram.readBursts                42952                       # Number of DRAM read bursts
system.mem_ctrls.dram.writeBursts               25960                       # Number of DRAM write bursts
system.mem_ctrls.dram.perBankRdBursts::0         2741                       # Per bank write bursts
system.mem_ctrls.dram.perBankRdBursts::1         2659                       # Per bank write bursts
system.mem_ctrls.dram.perBankRdBursts::2         2677                       # Per bank write bursts
system.mem_ctrls.dram.perBankRdBursts::3         2785                       # Per bank write bursts
system.mem_ctrls.dram.perBankRdBursts::4         2670                       # Per bank write bursts
system.mem_ctrls.dram.perBankRdBursts::5         2536                       # Per bank write bursts
system.mem_ctrls.dram.perBankRdBursts::6         2644                       # Per bank write bursts
system.mem_ctrls.dram.perBankRdBursts::7         2715                       # Per bank write bursts
system.mem_ctrls.dram.perBankRdBursts::8         2632                       # Per bank write bursts
system.mem_ctrls.dram.perBankRdBursts::9         2695                       # Per bank write bursts
system.mem_ctrls.dram.perBankRdBursts::10         2719                       # Per bank write bursts
system.mem_ctrls.dram.perBankRdBursts::11         2692                       # Per bank write bursts
system.mem_ctrls.dram.perBankRdBursts::12         2687                       # Per bank write bursts
system.mem_ctrls.dram.perBankRdBursts::13         2710                       # Per bank write bursts
system.mem_ctrls.dram.perBankRdBursts::14         2697                       # Per bank write bursts
system.mem_ctrls.dram.perBankRdBursts::15         2693                       # Per bank write bursts
system.mem_ctrls.dram.perBankWrBursts::0         1670                       # Per bank write bursts
system.mem_ctrls.dram.perBankWrBursts::1         1596                       # Per bank write bursts
system.mem_ctrls.dram.perBankWrBursts::2         1637                       # Per bank write bursts
system.mem_ctrls.dram.perBankWrBursts::3         1678                       # Per bank write bursts
system.mem_ctrls.dram.perBankWrBursts::4         1607                       # Per bank write bursts
system.mem_ctrls.dram.perBankWrBursts::5         1510                       # Per bank write bursts
system.mem_ctrls.dram.perBankWrBursts::6         1621                       # Per bank write bursts
system.mem_ctrls.dram.perBankWrBursts::7         1669                       # Per bank write bursts
system.mem_ctrls.dram.perBankWrBursts::8         1580                       # Per bank write bursts
system.mem_ctrls.dram.perBankWrBursts::9         1624                       # Per bank write bursts
system.mem_ctrls.dram.perBankWrBursts::10         1655                       # Per bank write bursts
system.mem_ctrls.dram.perBankWrBursts::11         1604                       # Per bank write bursts
system.mem_ctrls.dram.perBankWrBursts::12         1611                       # Per bank write bursts
system.mem_ctrls.dram.perBankWrBursts::13         1660                       # Per bank write bursts
system.mem_ctrls.dram.perBankWrBursts::14         1599                       # Per bank write bursts
system.mem_ctrls.dram.perBankWrBursts::15         1639                       # Per bank write bursts
system.mem_ctrls.dram.totQLat               674608000                       # Total ticks spent queuing
system.mem_ctrls.dram.totBusLat             214760000                       # Total ticks spent in databus transfers
system.mem_ctrls.dram.totMemAccLat         1479958000                       # Total ticks spent from burst creation until serviced by the DRAM
system.mem_ctrls.dram.avgQLat                15706.09                       # Average queueing delay per DRAM burst
system.mem_ctrls.dram.avgBusLat               5000.00                       # Average bus latency per DRAM burst
system.mem_ctrls.dram.avgMemAccLat           34456.09                       # Average memory access latency per DRAM burst
system.mem_ctrls.dram.readRowHits               20318                       # Number of row buffer hits during reads
system.mem_ctrls.dram.writeRowHits              19275                       # Number of row buffer hits during writes
system.mem_ctrls.dram.readRowHitRate            47.30                       # Row buffer hit rate for reads
system.mem_ctrls.dram.writeRowHitRate           74.25                       # Row buffer hit rate for writes
system.mem_ctrls.dram.bytesPerActivate::samples        29319                       # Bytes accessed per row activation
system.mem_ctrls.dram.bytesPerActivate::mean   150.426959                       # Bytes accessed per row activation
system.mem_ctrls.dram.bytesPerActivate::gmean   107.462241                       # Bytes accessed per row activation
system.mem_ctrls.dram.bytesPerActivate::stdev   170.516065                       # Bytes accessed per row activation
system.mem_ctrls.dram.bytesPerActivate::0-127        16432     56.05%     56.05% # Bytes accessed per row activation
system.mem_ctrls.dram.bytesPerActivate::128-255         8272     28.21%     84.26% # Bytes accessed per row activation
system.mem_ctrls.dram.bytesPerActivate::256-383         1690      5.76%     90.02% # Bytes accessed per row activation
system.mem_ctrls.dram.bytesPerActivate::384-511         1346      4.59%     94.61% # Bytes accessed per row activation
system.mem_ctrls.dram.bytesPerActivate::512-639          640      2.18%     96.80% # Bytes accessed per row activation
system.mem_ctrls.dram.bytesPerActivate::640-767          241      0.82%     97.62% # Bytes accessed per row activation
system.mem_ctrls.dram.bytesPerActivate::768-895          210      0.72%     98.34% # Bytes accessed per row activation
system.mem_ctrls.dram.bytesPerActivate::896-1023          165      0.56%     98.90% # Bytes accessed per row activation
system.mem_ctrls.dram.bytesPerActivate::1024-1151          323      1.10%    100.00% # Bytes accessed per row activation
system.mem_ctrls.dram.bytesPerActivate::total        29319                       # Bytes accessed per row activation
system.mem_ctrls.dram.bytesRead               2748928                       # Total number of bytes read from DRAM
system.mem_ctrls.dram.bytesWritten            1661440                       # Total number of bytes written to DRAM
system.mem_ctrls.dram.avgRdBW               22.219158                       # Average DRAM read bandwidth in MiBytes/s
system.mem_ctrls.dram.avgWrBW               13.429161                       # Average DRAM write bandwidth in MiBytes/s
system.mem_ctrls.dram.peakBW                 12800.00                       # Theoretical peak bandwidth in MiByte/s
system.mem_ctrls.dram.busUtil                    0.28                       # Data bus utilization in percentage
system.mem_ctrls.dram.busUtilRead                0.17                       # Data bus utilization in percentage for reads
system.mem_ctrls.dram.busUtilWrite               0.10                       # Data bus utilization in percentage for writes
system.mem_ctrls.dram.pageHitRate               57.45                       # Row buffer hit rate, read and write combined
system.mem_ctrls.dram.power_state.pwrStateResidencyTicks::UNDEFINED 123718821000                       # Cumulative time (in ticks) in various power states
system.mem_ctrls.dram.rank0.actEnergy       106343160                       # Energy for activate commands per rank (pJ)
system.mem_ctrls.dram.rank0.preEnergy        56522730                       # Energy for precharge commands per rank (pJ)
system.mem_ctrls.dram.rank0.readEnergy      152988780                       # Energy for read commands per rank (pJ)
system.mem_ctrls.dram.rank0.writeEnergy      67797360                       # Energy for write commands per rank (pJ)
system.mem_ctrls.dram.rank0.refreshEnergy 9766014960.000002                       # Energy for refresh commands per rank (pJ)
system.mem_ctrls.dram.rank0.actBackEnergy  23307879120                       # Energy for active background per rank (pJ)
system.mem_ctrls.dram.rank0.preBackEnergy  27880339680                       # Energy for precharge background per rank (pJ)
system.mem_ctrls.dram.rank0.actPowerDownEnergy            0                       # Energy for active power-down per rank (pJ)
system.mem_ctrls.dram.rank0.prePowerDownEnergy            0                       # Energy for precharge power-down per rank (pJ)
system.mem_ctrls.dram.rank0.selfRefreshEnergy            0                       # Energy for self refresh per rank (pJ)
system.mem_ctrls.dram.rank0.totalEnergy   61337885790                       # Total energy per rank (pJ)
system.mem_ctrls.dram.rank0.averagePower   495.784597                       # Core power per rank (mW)
system.mem_ctrls.dram.rank0.totalIdleTime            0                       # Total Idle time Per DRAM Rank
system.mem_ctrls.dram.rank0.pwrStateTime::IDLE  72244980000                       # Time in different power states
system.mem_ctrls.dram.rank0.pwrStateTime::REF   4131140000                       # Time in different power states
system.mem_ctrls.dram.rank0.pwrStateTime::SREF            0                       # Time in different power states
system.mem_ctrls.dram.rank0.pwrStateTime::PRE_PDN            0                       # Time in different power states
system.mem_ctrls.dram.rank0.pwrStateTime::ACT  47342701000                       # Time in different power states
system.mem_ctrls.dram.rank0.pwrStateTime::ACT_PDN            0                       # Time in different power states
system.mem_ctrls.dram.rank1.actEnergy       102994500                       # Energy for activate commands per rank (pJ)
system.mem_ctrls.dram.rank1.preEnergy        54742875                       # Energy for precharge commands per rank (pJ)
system.mem_ctrls.dram.rank1.readEnergy      153688500                       # Energy for read commands per rank (pJ)
system.mem_ctrls.dram.rank1.writeEnergy      67713840                       # Energy for write commands per rank (pJ)
system.mem_ctrls.dram.rank1.refreshEnergy 9766014960.000002                       # Energy for refresh commands per rank (pJ)
system.mem_ctrls.dram.rank1.actBackEnergy  23177248800                       # Energy for active background per rank (pJ)
system.mem_ctrls.dram.rank1.preBackEnergy  27990344160                       # Energy for precharge background per rank (pJ)
system.mem_ctrls.dram.rank1.actPowerDownEnergy            0                       # Energy for active power-down per rank (pJ)
system.mem_ctrls.dram.rank1.prePowerDownEnergy            0                       # Energy for precharge power-down per rank (pJ)
system.mem_ctrls.dram.rank1.selfRefreshEnergy            0                       # Energy for self refresh per rank (pJ)
system.mem_ctrls.dram.rank1.totalEnergy   61312747635                       # Total energy per rank (pJ)
system.mem_ctrls.dram.rank1.averagePower   495.581409                       # Core power per rank (mW)
system.mem_ctrls.dram.rank1.totalIdleTime            0                       # Total Idle time Per DRAM Rank
system.mem_ctrls.dram.rank1.pwrStateTime::IDLE  72532238500                       # Time in different power states
system.mem_ctrls.dram.rank1.pwrStateTime::REF   4131140000                       # Time in different power states
system.mem_ctrls.dram.rank1.pwrStateTime::SREF            0                       # Time in different power states
system.mem_ctrls.dram.rank1.pwrStateTime::PRE_PDN            0                       # Time in different power states
system.mem_ctrls.dram.rank1.pwrStateTime::ACT  47055442500                       # Time in different power states
system.mem_ctrls.dram.rank1.pwrStateTime::ACT_PDN            0                       # Time in different power states
system.mem_ctrls.power_state.pwrStateResidencyTicks::UNDEFINED 123718821000                       # Cumulative time (in ticks) in various power states
system.membus.trans_dist::ReadResp               4146                       # Transaction distribution
system.membus.trans_dist::WritebackDirty        25976                       # Transaction distribution
system.membus.trans_dist::CleanEvict              192                       # Transaction distribution
system.membus.trans_dist::ReadExReq             38810                       # Transaction distribution
system.membus.trans_dist::ReadExResp            38810                       # Transaction distribution
system.membus.trans_dist::ReadSharedReq          4146                       # Transaction distribution
system.membus.pkt_count_system.l2.mem_side_port::system.mem_ctrls.port       112080                       # Packet count per connected requestor and responder (bytes)
system.membus.pkt_count::total                 112080                       # Packet count per connected requestor and responder (bytes)
system.membus.pkt_size_system.l2.mem_side_port::system.mem_ctrls.port      4411648                       # Cumulative packet size per connected requestor and responder (bytes)
system.membus.pkt_size::total                 4411648                       # Cumulative packet size per connected requestor and responder (bytes)
system.membus.snoops                                0                       # Total snoops (count)
system.membus.snoopTraffic                          0                       # Total snoop traffic (bytes)
system.membus.snoop_fanout::samples             42956                       # Request fanout histogram
system.membus.snoop_fanout::mean                    0                       # Request fanout histogram
system.membus.snoop_fanout::stdev                   0                       # Request fanout histogram
system.membus.snoop_fanout::underflows              0      0.00%      0.00% # Request fanout histogram
system.membus.snoop_fanout::0                   42956    100.00%    100.00% # Request fanout histogram
system.membus.snoop_fanout::1                       0      0.00%    100.00% # Request fanout histogram
system.membus.snoop_fanout::overflows               0      0.00%    100.00% # Request fanout histogram
system.membus.snoop_fanout::min_value               0                       # Request fanout histogram
system.membus.snoop_fanout::max_value               0                       # Request fanout histogram
system.membus.snoop_fanout::total               42956                       # Request fanout histogram
system.membus.power_state.pwrStateResidencyTicks::UNDEFINED 123718821000                       # Cumulative time (in ticks) in various power states
system.membus.reqLayer0.occupancy           173028000                       # Layer occupancy (ticks)
system.membus.reqLayer0.utilization               0.1                       # Layer utilization (%)
system.membus.respLayer1.occupancy          231110250                       # Layer occupancy (ticks)
system.membus.respLayer1.utilization              0.2                       # Layer utilization (%)
system.tol2bus.trans_dist::ReadResp            559886                       # Transaction distribution
system.tol2bus.trans_dist::WritebackDirty        80004                       # Transaction distribution
system.tol2bus.trans_dist::WritebackClean       534723                       # Transaction distribution
system.tol2bus.trans_dist::CleanEvict            9881                       # Transaction distribution
system.tol2bus.trans_dist::ReadExReq            39043                       # Transaction distribution
system.tol2bus.trans_dist::ReadExResp           39043                       # Transaction distribution
system.tol2bus.trans_dist::ReadCleanReq        535125                       # Transaction distribution
system.tol2bus.trans_dist::ReadSharedReq        24761                       # Transaction distribution
system.tol2bus.pkt_count_system.cpu.icache.mem_side_port::system.l2.cpu_side_port      1604973                       # Packet count per connected requestor and responder (bytes)
system.tol2bus.pkt_count_system.cpu.dcache.mem_side_port::system.l2.cpu_side_port       190900                       # Packet count per connected requestor and responder (bytes)
system.tol2bus.pkt_count::total               1795873                       # Packet count per connected requestor and responder (bytes)
system.tol2bus.pkt_size_system.cpu.icache.mem_side_port::system.l2.cpu_side_port     68470272                       # Cumulative packet size per connected requestor and responder (bytes)
system.tol2bus.pkt_size_system.cpu.dcache.mem_side_port::system.l2.cpu_side_port      7541248                       # Cumulative packet size per connected requestor and responder (bytes)
system.tol2bus.pkt_size::total               76011520                       # Cumulative packet size per connected requestor and responder (bytes)
system.tol2bus.snoops                           26593                       # Total snoops (count)
system.tol2bus.snoopTraffic                   1662464                       # Total snoop traffic (bytes)
system.tol2bus.snoop_fanout::samples           625522                       # Request fanout histogram
system.tol2bus.snoop_fanout::mean            0.000775                       # Request fanout histogram
system.tol2bus.snoop_fanout::stdev           0.028120                       # Request fanout histogram
system.tol2bus.snoop_fanout::underflows             0      0.00%      0.00% # Request fanout histogram
system.tol2bus.snoop_fanout::0                 625042     99.92%     99.92% # Request fanout histogram
system.tol2bus.snoop_fanout::1                    475      0.08%    100.00% # Request fanout histogram
system.tol2bus.snoop_fanout::2                      5      0.00%    100.00% # Request fanout histogram
system.tol2bus.snoop_fanout::overflows              0      0.00%    100.00% # Request fanout histogram
system.tol2bus.snoop_fanout::min_value              0                       # Request fanout histogram
system.tol2bus.snoop_fanout::max_value              2                       # Request fanout histogram
system.tol2bus.snoop_fanout::total             625522                       # Request fanout histogram
system.tol2bus.power_state.pwrStateResidencyTicks::UNDEFINED 123718821000                       # Cumulative time (in ticks) in various power states
system.tol2bus.reqLayer0.occupancy         2374446000                       # Layer occupancy (ticks)
system.tol2bus.reqLayer0.utilization              1.9                       # Layer utilization (%)
system.tol2bus.respLayer0.occupancy        1605375999                       # Layer occupancy (ticks)
system.tol2bus.respLayer0.utilization             1.3                       # Layer utilization (%)
system.tol2bus.respLayer1.occupancy         191418993                       # Layer occupancy (ticks)
system.tol2bus.respLayer1.utilization             0.2                       # Layer utilization (%)
system.voltage_domain.voltage                       1                       # Voltage in Volts

---------- End Simulation Statistics   ----------
