
---------- Begin Simulation Statistics ----------
final_tick                               1166565541000                       # Number of ticks from beginning of simulation (restored from checkpoints and never reset)
host_inst_rate                                 108045                       # Simulator instruction rate (inst/s)
host_mem_usage                                 673824                       # Number of bytes of host memory used
host_op_rate                                   199039                       # Simulator op (including micro ops) rate (op/s)
host_seconds                                   925.54                       # Real time elapsed on the host
host_tick_rate                             1260416959                       # Simulator tick rate (ticks/s)
sim_freq                                 1000000000000                       # Frequency of simulated ticks
sim_insts                                   100000000                       # Number of instructions simulated
sim_ops                                     184218810                       # Number of ops (including micro ops) simulated
sim_seconds                                  1.166566                       # Number of seconds simulated
sim_ticks                                1166565541000                       # Number of ticks simulated
system.cpu.committedInsts                   100000000                       # Number of instructions committed
system.cpu.committedOps                     184218810                       # Number of ops (including micro ops) committed
system.cpu.cpi                              11.665655                       # CPI: cycles per instruction
system.cpu.discardedOps                          4342                       # Number of ops (including micro ops) which were discarded before commit
system.cpu.idleCycles                       907788525                       # Total number of cycles that the object has spent stopped
system.cpu.ipc                               0.085722                       # IPC: instructions per cycle
system.cpu.numCycles                       1166565541                       # number of cpu cycles simulated
system.cpu.numFetchSuspends                         0                       # Number of times Execute suspended instruction fetching
system.cpu.numWorkItemsCompleted                    0                       # number of work items this cpu completed
system.cpu.numWorkItemsStarted                      0                       # number of work items this cpu started
system.cpu.op_class_0::No_OpClass                   0      0.00%      0.00% # Class of committed instruction
system.cpu.op_class_0::IntAlu                97640467     53.00%     53.00% # Class of committed instruction
system.cpu.op_class_0::IntMult                 114702      0.06%     53.06% # Class of committed instruction
system.cpu.op_class_0::IntDiv                       0      0.00%     53.06% # Class of committed instruction
system.cpu.op_class_0::FloatAdd                     0      0.00%     53.06% # Class of committed instruction
system.cpu.op_class_0::FloatCmp                     0      0.00%     53.06% # Class of committed instruction
system.cpu.op_class_0::FloatCvt                     0      0.00%     53.06% # Class of committed instruction
system.cpu.op_class_0::FloatMult                    0      0.00%     53.06% # Class of committed instruction
system.cpu.op_class_0::FloatMultAcc                 0      0.00%     53.06% # Class of committed instruction
system.cpu.op_class_0::FloatDiv                     0      0.00%     53.06% # Class of committed instruction
system.cpu.op_class_0::FloatMisc                    0      0.00%     53.06% # Class of committed instruction
system.cpu.op_class_0::FloatSqrt                    0      0.00%     53.06% # Class of committed instruction
system.cpu.op_class_0::SimdAdd                      8      0.00%     53.06% # Class of committed instruction
system.cpu.op_class_0::SimdAddAcc                   0      0.00%     53.06% # Class of committed instruction
system.cpu.op_class_0::SimdAlu                     10      0.00%     53.06% # Class of committed instruction
system.cpu.op_class_0::SimdCmp                      8      0.00%     53.06% # Class of committed instruction
system.cpu.op_class_0::SimdCvt                      0      0.00%     53.06% # Class of committed instruction
system.cpu.op_class_0::SimdMisc                     1      0.00%     53.06% # Class of committed instruction
system.cpu.op_class_0::SimdMult                     0      0.00%     53.06% # Class of committed instruction
system.cpu.op_class_0::SimdMultAcc                  0      0.00%     53.06% # Class of committed instruction
system.cpu.op_class_0::SimdShift                    0      0.00%     53.06% # Class of committed instruction
system.cpu.op_class_0::SimdShiftAcc                 0      0.00%     53.06% # Class of committed instruction
system.cpu.op_class_0::SimdDiv                      0      0.00%     53.06% # Class of committed instruction
system.cpu.op_class_0::SimdSqrt                     0      0.00%     53.06% # Class of committed instruction
system.cpu.op_class_0::SimdFloatAdd                 0      0.00%     53.06% # Class of committed instruction
system.cpu.op_class_0::SimdFloatAlu                 0      0.00%     53.06% # Class of committed instruction
system.cpu.op_class_0::SimdFloatCmp                 0      0.00%     53.06% # Class of committed instruction
system.cpu.op_class_0::SimdFloatCvt                 0      0.00%     53.06% # Class of committed instruction
system.cpu.op_class_0::SimdFloatDiv                 0      0.00%     53.06% # Class of committed instruction
system.cpu.op_class_0::SimdFloatMisc               24      0.00%     53.06% # Class of committed instruction
system.cpu.op_class_0::SimdFloatMult                0      0.00%     53.06% # Class of committed instruction
system.cpu.op_class_0::SimdFloatMultAcc             0      0.00%     53.06% # Class of committed instruction
system.cpu.op_class_0::SimdFloatSqrt                0      0.00%     53.06% # Class of committed instruction
system.cpu.op_class_0::SimdReduceAdd                0      0.00%     53.06% # Class of committed instruction
system.cpu.op_class_0::SimdReduceAlu                0      0.00%     53.06% # Class of committed instruction
system.cpu.op_class_0::SimdReduceCmp                0      0.00%     53.06% # Class of committed instruction
system.cpu.op_class_0::SimdFloatReduceAdd            0      0.00%     53.06% # Class of committed instruction
system.cpu.op_class_0::SimdFloatReduceCmp            0      0.00%     53.06% # Class of committed instruction
system.cpu.op_class_0::SimdAes                      0      0.00%     53.06% # Class of committed instruction
system.cpu.op_class_0::SimdAesMix                   0      0.00%     53.06% # Class of committed instruction
system.cpu.op_class_0::SimdSha1Hash                 0      0.00%     53.06% # Class of committed instruction
system.cpu.op_class_0::SimdSha1Hash2                0      0.00%     53.06% # Class of committed instruction
system.cpu.op_class_0::SimdSha256Hash               0      0.00%     53.06% # Class of committed instruction
system.cpu.op_class_0::SimdSha256Hash2              0      0.00%     53.06% # Class of committed instruction
system.cpu.op_class_0::SimdShaSigma2                0      0.00%     53.06% # Class of committed instruction
system.cpu.op_class_0::SimdShaSigma3                0      0.00%     53.06% # Class of committed instruction
system.cpu.op_class_0::SimdPredAlu                  0      0.00%     53.06% # Class of committed instruction
system.cpu.op_class_0::MemRead                2082677      1.13%     54.20% # Class of committed instruction
system.cpu.op_class_0::MemWrite              84380913     45.80%    100.00% # Class of committed instruction
system.cpu.op_class_0::FloatMemRead                 0      0.00%    100.00% # Class of committed instruction
system.cpu.op_class_0::FloatMemWrite                0      0.00%    100.00% # Class of committed instruction
system.cpu.op_class_0::IprAccess                    0      0.00%    100.00% # Class of committed instruction
system.cpu.op_class_0::InstPrefetch                 0      0.00%    100.00% # Class of committed instruction
system.cpu.op_class_0::total                184218810                       # Class of committed instruction
system.cpu.tickCycles                       258777016                       # Number of cycles that the object actually ticked
system.cpu.workload.numSyscalls                    19                       # Number of system calls
system.membus.snoop_filter.hit_multi_requests            0                       # Number of requests hitting in the snoop filter with multiple (>1) holders of the requested data.
system.membus.snoop_filter.hit_multi_snoops            0                       # Number of snoops hitting in the snoop filter with multiple (>1) holders of the requested data.
system.membus.snoop_filter.hit_single_requests     10460892                       # Number of requests hitting in the snoop filter with a single holder of the requested data.
system.membus.snoop_filter.hit_single_snoops            0                       # Number of snoops hitting in the snoop filter with a single holder of the requested data.
system.membus.snoop_filter.tot_requests      20988056                       # Total number of requests made to the snoop filter.
system.membus.snoop_filter.tot_snoops               0                       # Total number of snoops made to the snoop filter.
system.tol2bus.snoop_filter.hit_multi_requests           58                       # Number of requests hitting in the snoop filter with multiple (>1) holders of the requested data.
system.tol2bus.snoop_filter.hit_multi_snoops            0                       # Number of snoops hitting in the snoop filter with multiple (>1) holders of the requested data.
system.tol2bus.snoop_filter.hit_single_requests     10524496                       # Number of requests hitting in the snoop filter with a single holder of the requested data.
system.tol2bus.snoop_filter.hit_single_snoops          853                       # Number of snoops hitting in the snoop filter with a single holder of the requested data.
system.tol2bus.snoop_filter.tot_requests     21051786                       # Total number of requests made to the snoop filter.
system.tol2bus.snoop_filter.tot_snoops            853                       # Total number of snoops made to the snoop filter.
system.clk_domain.clock                          1000                       # Clock period in ticks
system.cpu.branchPred.lookups                10657918                       # Number of BP lookups
system.cpu.branchPred.condPredicted          10649846                       # Number of conditional branches predicted
system.cpu.branchPred.condIncorrect              1451                       # Number of conditional branches incorrect
system.cpu.branchPred.BTBLookups             10650047                       # Number of BTB lookups
system.cpu.branchPred.BTBHits                10648864                       # Number of BTB hits
system.cpu.branchPred.BTBHitPct             99.988892                       # BTB Hit Percentage
system.cpu.branchPred.RASUsed                    2684                       # Number of times the RAS was used to get a target.
system.cpu.branchPred.RASIncorrect                  0                       # Number of incorrect RAS predictions.
system.cpu.branchPred.indirectLookups             183                       # Number of indirect predictor lookups.
system.cpu.branchPred.indirectHits                 18                       # Number of indirect target hits.
system.cpu.branchPred.indirectMisses              165                       # Number of indirect misses.
system.cpu.branchPred.indirectMispredicted          106                       # Number of mispredicted indirect branches.
system.cpu.dcache.demand_hits::.cpu.data     65333642                       # number of demand (read+write) hits
system.cpu.dcache.demand_hits::total         65333642                       # number of demand (read+write) hits
system.cpu.dcache.overall_hits::.cpu.data     65333672                       # number of overall hits
system.cpu.dcache.overall_hits::total        65333672                       # number of overall hits
system.cpu.dcache.demand_misses::.cpu.data     21047178                       # number of demand (read+write) misses
system.cpu.dcache.demand_misses::total       21047178                       # number of demand (read+write) misses
system.cpu.dcache.overall_misses::.cpu.data     21047219                       # number of overall misses
system.cpu.dcache.overall_misses::total      21047219                       # number of overall misses
system.cpu.dcache.demand_miss_latency::.cpu.data 2152622738999                       # number of demand (read+write) miss cycles
system.cpu.dcache.demand_miss_latency::total 2152622738999                       # number of demand (read+write) miss cycles
system.cpu.dcache.overall_miss_latency::.cpu.data 2152622738999                       # number of overall miss cycles
system.cpu.dcache.overall_miss_latency::total 2152622738999                       # number of overall miss cycles
system.cpu.dcache.demand_accesses::.cpu.data     86380820                       # number of demand (read+write) accesses
system.cpu.dcache.demand_accesses::total     86380820                       # number of demand (read+write) accesses
system.cpu.dcache.overall_accesses::.cpu.data     86380891                       # number of overall (read+write) accesses
system.cpu.dcache.overall_accesses::total     86380891                       # number of overall (read+write) accesses
system.cpu.dcache.demand_miss_rate::.cpu.data     0.243656                       # miss rate for demand accesses
system.cpu.dcache.demand_miss_rate::total     0.243656                       # miss rate for demand accesses
system.cpu.dcache.overall_miss_rate::.cpu.data     0.243656                       # miss rate for overall accesses
system.cpu.dcache.overall_miss_rate::total     0.243656                       # miss rate for overall accesses
system.cpu.dcache.demand_avg_miss_latency::.cpu.data 102276.074208                       # average overall miss latency
system.cpu.dcache.demand_avg_miss_latency::total 102276.074208                       # average overall miss latency
system.cpu.dcache.overall_avg_miss_latency::.cpu.data 102275.874974                       # average overall miss latency
system.cpu.dcache.overall_avg_miss_latency::total 102275.874974                       # average overall miss latency
system.cpu.dcache.blocked_cycles::no_mshrs           52                       # number of cycles access was blocked
system.cpu.dcache.blocked_cycles::no_targets            0                       # number of cycles access was blocked
system.cpu.dcache.blocked::no_mshrs                 1                       # number of cycles access was blocked
system.cpu.dcache.blocked::no_targets               0                       # number of cycles access was blocked
system.cpu.dcache.avg_blocked_cycles::no_mshrs           52                       # average number of cycles each access was blocked
system.cpu.dcache.avg_blocked_cycles::no_targets          nan                       # average number of cycles each access was blocked
system.cpu.dcache.writebacks::.writebacks     10523870                       # number of writebacks
system.cpu.dcache.writebacks::total          10523870                       # number of writebacks
system.cpu.dcache.demand_mshr_hits::.cpu.data     10520885                       # number of demand (read+write) MSHR hits
system.cpu.dcache.demand_mshr_hits::total     10520885                       # number of demand (read+write) MSHR hits
system.cpu.dcache.overall_mshr_hits::.cpu.data     10520885                       # number of overall MSHR hits
system.cpu.dcache.overall_mshr_hits::total     10520885                       # number of overall MSHR hits
system.cpu.dcache.demand_mshr_misses::.cpu.data     10526293                       # number of demand (read+write) MSHR misses
system.cpu.dcache.demand_mshr_misses::total     10526293                       # number of demand (read+write) MSHR misses
system.cpu.dcache.overall_mshr_misses::.cpu.data     10526334                       # number of overall MSHR misses
system.cpu.dcache.overall_mshr_misses::total     10526334                       # number of overall MSHR misses
system.cpu.dcache.demand_mshr_miss_latency::.cpu.data 1055566552000                       # number of demand (read+write) MSHR miss cycles
system.cpu.dcache.demand_mshr_miss_latency::total 1055566552000                       # number of demand (read+write) MSHR miss cycles
system.cpu.dcache.overall_mshr_miss_latency::.cpu.data 1055570982000                       # number of overall MSHR miss cycles
system.cpu.dcache.overall_mshr_miss_latency::total 1055570982000                       # number of overall MSHR miss cycles
system.cpu.dcache.demand_mshr_miss_rate::.cpu.data     0.121859                       # mshr miss rate for demand accesses
system.cpu.dcache.demand_mshr_miss_rate::total     0.121859                       # mshr miss rate for demand accesses
system.cpu.dcache.overall_mshr_miss_rate::.cpu.data     0.121860                       # mshr miss rate for overall accesses
system.cpu.dcache.overall_mshr_miss_rate::total     0.121860                       # mshr miss rate for overall accesses
system.cpu.dcache.demand_avg_mshr_miss_latency::.cpu.data 100279.039544                       # average overall mshr miss latency
system.cpu.dcache.demand_avg_mshr_miss_latency::total 100279.039544                       # average overall mshr miss latency
system.cpu.dcache.overall_avg_mshr_miss_latency::.cpu.data 100279.069807                       # average overall mshr miss latency
system.cpu.dcache.overall_avg_mshr_miss_latency::total 100279.069807                       # average overall mshr miss latency
system.cpu.dcache.replacements               10524288                       # number of replacements
system.cpu.dcache.ReadReq_hits::.cpu.data      2043713                       # number of ReadReq hits
system.cpu.dcache.ReadReq_hits::total         2043713                       # number of ReadReq hits
system.cpu.dcache.ReadReq_misses::.cpu.data          459                       # number of ReadReq misses
system.cpu.dcache.ReadReq_misses::total           459                       # number of ReadReq misses
system.cpu.dcache.ReadReq_miss_latency::.cpu.data     45561000                       # number of ReadReq miss cycles
system.cpu.dcache.ReadReq_miss_latency::total     45561000                       # number of ReadReq miss cycles
system.cpu.dcache.ReadReq_accesses::.cpu.data      2044172                       # number of ReadReq accesses(hits+misses)
system.cpu.dcache.ReadReq_accesses::total      2044172                       # number of ReadReq accesses(hits+misses)
system.cpu.dcache.ReadReq_miss_rate::.cpu.data     0.000225                       # miss rate for ReadReq accesses
system.cpu.dcache.ReadReq_miss_rate::total     0.000225                       # miss rate for ReadReq accesses
system.cpu.dcache.ReadReq_avg_miss_latency::.cpu.data 99261.437908                       # average ReadReq miss latency
system.cpu.dcache.ReadReq_avg_miss_latency::total 99261.437908                       # average ReadReq miss latency
system.cpu.dcache.ReadReq_mshr_hits::.cpu.data           31                       # number of ReadReq MSHR hits
system.cpu.dcache.ReadReq_mshr_hits::total           31                       # number of ReadReq MSHR hits
system.cpu.dcache.ReadReq_mshr_misses::.cpu.data          428                       # number of ReadReq MSHR misses
system.cpu.dcache.ReadReq_mshr_misses::total          428                       # number of ReadReq MSHR misses
system.cpu.dcache.ReadReq_mshr_miss_latency::.cpu.data     42112000                       # number of ReadReq MSHR miss cycles
system.cpu.dcache.ReadReq_mshr_miss_latency::total     42112000                       # number of ReadReq MSHR miss cycles
system.cpu.dcache.ReadReq_mshr_miss_rate::.cpu.data     0.000209                       # mshr miss rate for ReadReq accesses
system.cpu.dcache.ReadReq_mshr_miss_rate::total     0.000209                       # mshr miss rate for ReadReq accesses
system.cpu.dcache.ReadReq_avg_mshr_miss_latency::.cpu.data 98392.523364                       # average ReadReq mshr miss latency
system.cpu.dcache.ReadReq_avg_mshr_miss_latency::total 98392.523364                       # average ReadReq mshr miss latency
system.cpu.dcache.WriteReq_hits::.cpu.data     63289929                       # number of WriteReq hits
system.cpu.dcache.WriteReq_hits::total       63289929                       # number of WriteReq hits
system.cpu.dcache.WriteReq_misses::.cpu.data     21046719                       # number of WriteReq misses
system.cpu.dcache.WriteReq_misses::total     21046719                       # number of WriteReq misses
system.cpu.dcache.WriteReq_miss_latency::.cpu.data 2152577177999                       # number of WriteReq miss cycles
system.cpu.dcache.WriteReq_miss_latency::total 2152577177999                       # number of WriteReq miss cycles
system.cpu.dcache.WriteReq_accesses::.cpu.data     84336648                       # number of WriteReq accesses(hits+misses)
system.cpu.dcache.WriteReq_accesses::total     84336648                       # number of WriteReq accesses(hits+misses)
system.cpu.dcache.WriteReq_miss_rate::.cpu.data     0.249556                       # miss rate for WriteReq accesses
system.cpu.dcache.WriteReq_miss_rate::total     0.249556                       # miss rate for WriteReq accesses
system.cpu.dcache.WriteReq_avg_miss_latency::.cpu.data 102276.139953                       # average WriteReq miss latency
system.cpu.dcache.WriteReq_avg_miss_latency::total 102276.139953                       # average WriteReq miss latency
system.cpu.dcache.WriteReq_mshr_hits::.cpu.data     10520854                       # number of WriteReq MSHR hits
system.cpu.dcache.WriteReq_mshr_hits::total     10520854                       # number of WriteReq MSHR hits
system.cpu.dcache.WriteReq_mshr_misses::.cpu.data     10525865                       # number of WriteReq MSHR misses
system.cpu.dcache.WriteReq_mshr_misses::total     10525865                       # number of WriteReq MSHR misses
system.cpu.dcache.WriteReq_mshr_miss_latency::.cpu.data 1055524440000                       # number of WriteReq MSHR miss cycles
system.cpu.dcache.WriteReq_mshr_miss_latency::total 1055524440000                       # number of WriteReq MSHR miss cycles
system.cpu.dcache.WriteReq_mshr_miss_rate::.cpu.data     0.124808                       # mshr miss rate for WriteReq accesses
system.cpu.dcache.WriteReq_mshr_miss_rate::total     0.124808                       # mshr miss rate for WriteReq accesses
system.cpu.dcache.WriteReq_avg_mshr_miss_latency::.cpu.data 100279.116253                       # average WriteReq mshr miss latency
system.cpu.dcache.WriteReq_avg_mshr_miss_latency::total 100279.116253                       # average WriteReq mshr miss latency
system.cpu.dcache.SoftPFReq_hits::.cpu.data           30                       # number of SoftPFReq hits
system.cpu.dcache.SoftPFReq_hits::total            30                       # number of SoftPFReq hits
system.cpu.dcache.SoftPFReq_misses::.cpu.data           41                       # number of SoftPFReq misses
system.cpu.dcache.SoftPFReq_misses::total           41                       # number of SoftPFReq misses
system.cpu.dcache.SoftPFReq_accesses::.cpu.data           71                       # number of SoftPFReq accesses(hits+misses)
system.cpu.dcache.SoftPFReq_accesses::total           71                       # number of SoftPFReq accesses(hits+misses)
system.cpu.dcache.SoftPFReq_miss_rate::.cpu.data     0.577465                       # miss rate for SoftPFReq accesses
system.cpu.dcache.SoftPFReq_miss_rate::total     0.577465                       # miss rate for SoftPFReq accesses
system.cpu.dcache.SoftPFReq_mshr_misses::.cpu.data           41                       # number of SoftPFReq MSHR misses
system.cpu.dcache.SoftPFReq_mshr_misses::total           41                       # number of SoftPFReq MSHR misses
system.cpu.dcache.SoftPFReq_mshr_miss_latency::.cpu.data      4430000                       # number of SoftPFReq MSHR miss cycles
system.cpu.dcache.SoftPFReq_mshr_miss_latency::total      4430000                       # number of SoftPFReq MSHR miss cycles
system.cpu.dcache.SoftPFReq_mshr_miss_rate::.cpu.data     0.577465                       # mshr miss rate for SoftPFReq accesses
system.cpu.dcache.SoftPFReq_mshr_miss_rate::total     0.577465                       # mshr miss rate for SoftPFReq accesses
system.cpu.dcache.SoftPFReq_avg_mshr_miss_latency::.cpu.data 108048.780488                       # average SoftPFReq mshr miss latency
system.cpu.dcache.SoftPFReq_avg_mshr_miss_latency::total 108048.780488                       # average SoftPFReq mshr miss latency
system.cpu.dcache.LoadLockedReq_hits::.cpu.data           31                       # number of LoadLockedReq hits
system.cpu.dcache.LoadLockedReq_hits::total           31                       # number of LoadLockedReq hits
system.cpu.dcache.LoadLockedReq_misses::.cpu.data            3                       # number of LoadLockedReq misses
system.cpu.dcache.LoadLockedReq_misses::total            3                       # number of LoadLockedReq misses
system.cpu.dcache.LoadLockedReq_miss_latency::.cpu.data       313000                       # number of LoadLockedReq miss cycles
system.cpu.dcache.LoadLockedReq_miss_latency::total       313000                       # number of LoadLockedReq miss cycles
system.cpu.dcache.LoadLockedReq_accesses::.cpu.data           34                       # number of LoadLockedReq accesses(hits+misses)
system.cpu.dcache.LoadLockedReq_accesses::total           34                       # number of LoadLockedReq accesses(hits+misses)
system.cpu.dcache.LoadLockedReq_miss_rate::.cpu.data     0.088235                       # miss rate for LoadLockedReq accesses
system.cpu.dcache.LoadLockedReq_miss_rate::total     0.088235                       # miss rate for LoadLockedReq accesses
system.cpu.dcache.LoadLockedReq_avg_miss_latency::.cpu.data 104333.333333                       # average LoadLockedReq miss latency
system.cpu.dcache.LoadLockedReq_avg_miss_latency::total 104333.333333                       # average LoadLockedReq miss latency
system.cpu.dcache.LoadLockedReq_mshr_misses::.cpu.data            3                       # number of LoadLockedReq MSHR misses
system.cpu.dcache.LoadLockedReq_mshr_misses::total            3                       # number of LoadLockedReq MSHR misses
system.cpu.dcache.LoadLockedReq_mshr_miss_latency::.cpu.data       307000                       # number of LoadLockedReq MSHR miss cycles
system.cpu.dcache.LoadLockedReq_mshr_miss_latency::total       307000                       # number of LoadLockedReq MSHR miss cycles
system.cpu.dcache.LoadLockedReq_mshr_miss_rate::.cpu.data     0.088235                       # mshr miss rate for LoadLockedReq accesses
system.cpu.dcache.LoadLockedReq_mshr_miss_rate::total     0.088235                       # mshr miss rate for LoadLockedReq accesses
system.cpu.dcache.LoadLockedReq_avg_mshr_miss_latency::.cpu.data 102333.333333                       # average LoadLockedReq mshr miss latency
system.cpu.dcache.LoadLockedReq_avg_mshr_miss_latency::total 102333.333333                       # average LoadLockedReq mshr miss latency
system.cpu.dcache.StoreCondReq_hits::.cpu.data           34                       # number of StoreCondReq hits
system.cpu.dcache.StoreCondReq_hits::total           34                       # number of StoreCondReq hits
system.cpu.dcache.StoreCondReq_accesses::.cpu.data           34                       # number of StoreCondReq accesses(hits+misses)
system.cpu.dcache.StoreCondReq_accesses::total           34                       # number of StoreCondReq accesses(hits+misses)
system.cpu.dcache.power_state.pwrStateResidencyTicks::UNDEFINED 1166565541000                       # Cumulative time (in ticks) in various power states
system.cpu.dcache.tags.tagsinuse          2047.096299                       # Cycle average of tags in use
system.cpu.dcache.tags.total_refs            75860073                       # Total number of references to valid blocks.
system.cpu.dcache.tags.sampled_refs          10526336                       # Sample count of references to valid blocks.
system.cpu.dcache.tags.avg_refs              7.206693                       # Average number of references to valid blocks.
system.cpu.dcache.tags.warmup_cycle            223000                       # Cycle when the warmup percentage was hit.
system.cpu.dcache.tags.occ_blocks::.cpu.data  2047.096299                       # Average occupied blocks per requestor
system.cpu.dcache.tags.occ_percent::.cpu.data     0.999559                       # Average percentage of cache occupancy
system.cpu.dcache.tags.occ_percent::total     0.999559                       # Average percentage of cache occupancy
system.cpu.dcache.tags.occ_task_id_blocks::1024         2048                       # Occupied blocks per task id
system.cpu.dcache.tags.age_task_id_blocks_1024::0           91                       # Occupied blocks per task id
system.cpu.dcache.tags.age_task_id_blocks_1024::1          817                       # Occupied blocks per task id
system.cpu.dcache.tags.age_task_id_blocks_1024::2         1140                       # Occupied blocks per task id
system.cpu.dcache.tags.occ_task_id_percent::1024            1                       # Percentage of cache occupancy per task id
system.cpu.dcache.tags.tag_accesses         183288254                       # Number of tag accesses
system.cpu.dcache.tags.data_accesses        183288254                       # Number of data accesses
system.cpu.dcache.tags.power_state.pwrStateResidencyTicks::UNDEFINED 1166565541000                       # Cumulative time (in ticks) in various power states
system.cpu.dtb.instHits                             0                       # ITB inst hits
system.cpu.dtb.instMisses                           0                       # ITB inst misses
system.cpu.dtb.readHits                             0                       # DTB read hits
system.cpu.dtb.readMisses                           0                       # DTB read misses
system.cpu.dtb.writeHits                            0                       # DTB write hits
system.cpu.dtb.writeMisses                          0                       # DTB write misses
system.cpu.dtb.inserts                              0                       # Number of times an entry is inserted into the TLB
system.cpu.dtb.flushTlb                             0                       # Number of times complete TLB was flushed
system.cpu.dtb.flushTlbMva                          0                       # Number of times TLB was flushed by MVA
system.cpu.dtb.flushTlbMvaAsid                      0                       # Number of times TLB was flushed by MVA & ASID
system.cpu.dtb.flushTlbAsid                         0                       # Number of times TLB was flushed by ASID
system.cpu.dtb.flushedEntries                       0                       # Number of entries that have been flushed from TLB
system.cpu.dtb.alignFaults                          0                       # Number of TLB faults due to alignment restrictions
system.cpu.dtb.prefetchFaults                       0                       # Number of TLB faults due to prefetch
system.cpu.dtb.domainFaults                         0                       # Number of TLB faults due to domain restrictions
system.cpu.dtb.permsFaults                          0                       # Number of TLB faults due to permissions restrictions
system.cpu.dtb.readAccesses                         0                       # DTB read accesses
system.cpu.dtb.writeAccesses                        0                       # DTB write accesses
system.cpu.dtb.instAccesses                         0                       # ITB inst accesses
system.cpu.dtb.hits                                 0                       # Total TLB (inst and data) hits
system.cpu.dtb.misses                               0                       # Total TLB (inst and data) misses
system.cpu.dtb.accesses                             0                       # Total TLB (inst and data) accesses
system.cpu.dtb.stage2_mmu.stage2_tlb.instHits            0                       # ITB inst hits
system.cpu.dtb.stage2_mmu.stage2_tlb.instMisses            0                       # ITB inst misses
system.cpu.dtb.stage2_mmu.stage2_tlb.readHits            0                       # DTB read hits
system.cpu.dtb.stage2_mmu.stage2_tlb.readMisses            0                       # DTB read misses
system.cpu.dtb.stage2_mmu.stage2_tlb.writeHits            0                       # DTB write hits
system.cpu.dtb.stage2_mmu.stage2_tlb.writeMisses            0                       # DTB write misses
system.cpu.dtb.stage2_mmu.stage2_tlb.inserts            0                       # Number of times an entry is inserted into the TLB
system.cpu.dtb.stage2_mmu.stage2_tlb.flushTlb            0                       # Number of times complete TLB was flushed
system.cpu.dtb.stage2_mmu.stage2_tlb.flushTlbMva            0                       # Number of times TLB was flushed by MVA
system.cpu.dtb.stage2_mmu.stage2_tlb.flushTlbMvaAsid            0                       # Number of times TLB was flushed by MVA & ASID
system.cpu.dtb.stage2_mmu.stage2_tlb.flushTlbAsid            0                       # Number of times TLB was flushed by ASID
system.cpu.dtb.stage2_mmu.stage2_tlb.flushedEntries            0                       # Number of entries that have been flushed from TLB
system.cpu.dtb.stage2_mmu.stage2_tlb.alignFaults            0                       # Number of TLB faults due to alignment restrictions
system.cpu.dtb.stage2_mmu.stage2_tlb.prefetchFaults            0                       # Number of TLB faults due to prefetch
system.cpu.dtb.stage2_mmu.stage2_tlb.domainFaults            0                       # Number of TLB faults due to domain restrictions
system.cpu.dtb.stage2_mmu.stage2_tlb.permsFaults            0                       # Number of TLB faults due to permissions restrictions
system.cpu.dtb.stage2_mmu.stage2_tlb.readAccesses            0                       # DTB read accesses
system.cpu.dtb.stage2_mmu.stage2_tlb.writeAccesses            0                       # DTB write accesses
system.cpu.dtb.stage2_mmu.stage2_tlb.instAccesses            0                       # ITB inst accesses
system.cpu.dtb.stage2_mmu.stage2_tlb.hits            0                       # Total TLB (inst and data) hits
system.cpu.dtb.stage2_mmu.stage2_tlb.misses            0                       # Total TLB (inst and data) misses
system.cpu.dtb.stage2_mmu.stage2_tlb.accesses            0                       # Total TLB (inst and data) accesses
system.cpu.dtb.stage2_mmu.stage2_tlb.walker.walks            0                       # Table walker walks requested
system.cpu.dtb.stage2_mmu.stage2_tlb.walker.requestOrigin_Requested::Data            0                       # Table walker requests started/completed, data/inst
system.cpu.dtb.stage2_mmu.stage2_tlb.walker.requestOrigin_Requested::Inst            0                       # Table walker requests started/completed, data/inst
system.cpu.dtb.stage2_mmu.stage2_tlb.walker.requestOrigin_Requested::total            0                       # Table walker requests started/completed, data/inst
system.cpu.dtb.stage2_mmu.stage2_tlb.walker.requestOrigin_Completed::Data            0                       # Table walker requests started/completed, data/inst
system.cpu.dtb.stage2_mmu.stage2_tlb.walker.requestOrigin_Completed::Inst            0                       # Table walker requests started/completed, data/inst
system.cpu.dtb.stage2_mmu.stage2_tlb.walker.requestOrigin_Completed::total            0                       # Table walker requests started/completed, data/inst
system.cpu.dtb.stage2_mmu.stage2_tlb.walker.requestOrigin::total            0                       # Table walker requests started/completed, data/inst
system.cpu.dtb.stage2_mmu.stage2_tlb.walker.power_state.pwrStateResidencyTicks::UNDEFINED 1166565541000                       # Cumulative time (in ticks) in various power states
system.cpu.dtb.walker.walks                         0                       # Table walker walks requested
system.cpu.dtb.walker.requestOrigin_Requested::Data            0                       # Table walker requests started/completed, data/inst
system.cpu.dtb.walker.requestOrigin_Requested::Inst            0                       # Table walker requests started/completed, data/inst
system.cpu.dtb.walker.requestOrigin_Requested::total            0                       # Table walker requests started/completed, data/inst
system.cpu.dtb.walker.requestOrigin_Completed::Data            0                       # Table walker requests started/completed, data/inst
system.cpu.dtb.walker.requestOrigin_Completed::Inst            0                       # Table walker requests started/completed, data/inst
system.cpu.dtb.walker.requestOrigin_Completed::total            0                       # Table walker requests started/completed, data/inst
system.cpu.dtb.walker.requestOrigin::total            0                       # Table walker requests started/completed, data/inst
system.cpu.dtb.walker.power_state.pwrStateResidencyTicks::UNDEFINED 1166565541000                       # Cumulative time (in ticks) in various power states
system.cpu.fetch2.intInstructions            45070149                       # Number of integer instructions successfully decoded
system.cpu.fetch2.fpInstructions                    0                       # Number of floating point instructions successfully decoded
system.cpu.fetch2.vecInstructions                   0                       # Number of SIMD instructions successfully decoded
system.cpu.fetch2.loadInstructions            2086000                       # Number of memory load instructions successfully decoded
system.cpu.fetch2.storeInstructions            168927                       # Number of memory store instructions successfully decoded
system.cpu.fetch2.amoInstructions                   0                       # Number of memory atomic instructions successfully decoded
system.cpu.icache.demand_hits::.cpu.inst     42891232                       # number of demand (read+write) hits
system.cpu.icache.demand_hits::total         42891232                       # number of demand (read+write) hits
system.cpu.icache.overall_hits::.cpu.inst     42891232                       # number of overall hits
system.cpu.icache.overall_hits::total        42891232                       # number of overall hits
system.cpu.icache.demand_misses::.cpu.inst          953                       # number of demand (read+write) misses
system.cpu.icache.demand_misses::total            953                       # number of demand (read+write) misses
system.cpu.icache.overall_misses::.cpu.inst          953                       # number of overall misses
system.cpu.icache.overall_misses::total           953                       # number of overall misses
system.cpu.icache.demand_miss_latency::.cpu.inst     95771000                       # number of demand (read+write) miss cycles
system.cpu.icache.demand_miss_latency::total     95771000                       # number of demand (read+write) miss cycles
system.cpu.icache.overall_miss_latency::.cpu.inst     95771000                       # number of overall miss cycles
system.cpu.icache.overall_miss_latency::total     95771000                       # number of overall miss cycles
system.cpu.icache.demand_accesses::.cpu.inst     42892185                       # number of demand (read+write) accesses
system.cpu.icache.demand_accesses::total     42892185                       # number of demand (read+write) accesses
system.cpu.icache.overall_accesses::.cpu.inst     42892185                       # number of overall (read+write) accesses
system.cpu.icache.overall_accesses::total     42892185                       # number of overall (read+write) accesses
system.cpu.icache.demand_miss_rate::.cpu.inst     0.000022                       # miss rate for demand accesses
system.cpu.icache.demand_miss_rate::total     0.000022                       # miss rate for demand accesses
system.cpu.icache.overall_miss_rate::.cpu.inst     0.000022                       # miss rate for overall accesses
system.cpu.icache.overall_miss_rate::total     0.000022                       # miss rate for overall accesses
system.cpu.icache.demand_avg_miss_latency::.cpu.inst 100494.228751                       # average overall miss latency
system.cpu.icache.demand_avg_miss_latency::total 100494.228751                       # average overall miss latency
system.cpu.icache.overall_avg_miss_latency::.cpu.inst 100494.228751                       # average overall miss latency
system.cpu.icache.overall_avg_miss_latency::total 100494.228751                       # average overall miss latency
system.cpu.icache.blocked_cycles::no_mshrs            0                       # number of cycles access was blocked
system.cpu.icache.blocked_cycles::no_targets            0                       # number of cycles access was blocked
system.cpu.icache.blocked::no_mshrs                 0                       # number of cycles access was blocked
system.cpu.icache.blocked::no_targets               0                       # number of cycles access was blocked
system.cpu.icache.avg_blocked_cycles::no_mshrs          nan                       # average number of cycles each access was blocked
system.cpu.icache.avg_blocked_cycles::no_targets          nan                       # average number of cycles each access was blocked
system.cpu.icache.writebacks::.writebacks          208                       # number of writebacks
system.cpu.icache.writebacks::total               208                       # number of writebacks
system.cpu.icache.demand_mshr_misses::.cpu.inst          953                       # number of demand (read+write) MSHR misses
system.cpu.icache.demand_mshr_misses::total          953                       # number of demand (read+write) MSHR misses
system.cpu.icache.overall_mshr_misses::.cpu.inst          953                       # number of overall MSHR misses
system.cpu.icache.overall_mshr_misses::total          953                       # number of overall MSHR misses
system.cpu.icache.demand_mshr_miss_latency::.cpu.inst     93865000                       # number of demand (read+write) MSHR miss cycles
system.cpu.icache.demand_mshr_miss_latency::total     93865000                       # number of demand (read+write) MSHR miss cycles
system.cpu.icache.overall_mshr_miss_latency::.cpu.inst     93865000                       # number of overall MSHR miss cycles
system.cpu.icache.overall_mshr_miss_latency::total     93865000                       # number of overall MSHR miss cycles
system.cpu.icache.demand_mshr_miss_rate::.cpu.inst     0.000022                       # mshr miss rate for demand accesses
system.cpu.icache.demand_mshr_miss_rate::total     0.000022                       # mshr miss rate for demand accesses
system.cpu.icache.overall_mshr_miss_rate::.cpu.inst     0.000022                       # mshr miss rate for overall accesses
system.cpu.icache.overall_mshr_miss_rate::total     0.000022                       # mshr miss rate for overall accesses
system.cpu.icache.demand_avg_mshr_miss_latency::.cpu.inst 98494.228751                       # average overall mshr miss latency
system.cpu.icache.demand_avg_mshr_miss_latency::total 98494.228751                       # average overall mshr miss latency
system.cpu.icache.overall_avg_mshr_miss_latency::.cpu.inst 98494.228751                       # average overall mshr miss latency
system.cpu.icache.overall_avg_mshr_miss_latency::total 98494.228751                       # average overall mshr miss latency
system.cpu.icache.replacements                    208                       # number of replacements
system.cpu.icache.ReadReq_hits::.cpu.inst     42891232                       # number of ReadReq hits
system.cpu.icache.ReadReq_hits::total        42891232                       # number of ReadReq hits
system.cpu.icache.ReadReq_misses::.cpu.inst          953                       # number of ReadReq misses
system.cpu.icache.ReadReq_misses::total           953                       # number of ReadReq misses
system.cpu.icache.ReadReq_miss_latency::.cpu.inst     95771000                       # number of ReadReq miss cycles
system.cpu.icache.ReadReq_miss_latency::total     95771000                       # number of ReadReq miss cycles
system.cpu.icache.ReadReq_accesses::.cpu.inst     42892185                       # number of ReadReq accesses(hits+misses)
system.cpu.icache.ReadReq_accesses::total     42892185                       # number of ReadReq accesses(hits+misses)
system.cpu.icache.ReadReq_miss_rate::.cpu.inst     0.000022                       # miss rate for ReadReq accesses
system.cpu.icache.ReadReq_miss_rate::total     0.000022                       # miss rate for ReadReq accesses
system.cpu.icache.ReadReq_avg_miss_latency::.cpu.inst 100494.228751                       # average ReadReq miss latency
system.cpu.icache.ReadReq_avg_miss_latency::total 100494.228751                       # average ReadReq miss latency
system.cpu.icache.ReadReq_mshr_misses::.cpu.inst          953                       # number of ReadReq MSHR misses
system.cpu.icache.ReadReq_mshr_misses::total          953                       # number of ReadReq MSHR misses
system.cpu.icache.ReadReq_mshr_miss_latency::.cpu.inst     93865000                       # number of ReadReq MSHR miss cycles
system.cpu.icache.ReadReq_mshr_miss_latency::total     93865000                       # number of ReadReq MSHR miss cycles
system.cpu.icache.ReadReq_mshr_miss_rate::.cpu.inst     0.000022                       # mshr miss rate for ReadReq accesses
system.cpu.icache.ReadReq_mshr_miss_rate::total     0.000022                       # mshr miss rate for ReadReq accesses
system.cpu.icache.ReadReq_avg_mshr_miss_latency::.cpu.inst 98494.228751                       # average ReadReq mshr miss latency
system.cpu.icache.ReadReq_avg_mshr_miss_latency::total 98494.228751                       # average ReadReq mshr miss latency
system.cpu.icache.power_state.pwrStateResidencyTicks::UNDEFINED 1166565541000                       # Cumulative time (in ticks) in various power states
system.cpu.icache.tags.tagsinuse           644.470315                       # Cycle average of tags in use
system.cpu.icache.tags.total_refs            42892185                       # Total number of references to valid blocks.
system.cpu.icache.tags.sampled_refs               953                       # Sample count of references to valid blocks.
system.cpu.icache.tags.avg_refs          45007.539349                       # Average number of references to valid blocks.
system.cpu.icache.tags.warmup_cycle            108000                       # Cycle when the warmup percentage was hit.
system.cpu.icache.tags.occ_blocks::.cpu.inst   644.470315                       # Average occupied blocks per requestor
system.cpu.icache.tags.occ_percent::.cpu.inst     0.629366                       # Average percentage of cache occupancy
system.cpu.icache.tags.occ_percent::total     0.629366                       # Average percentage of cache occupancy
system.cpu.icache.tags.occ_task_id_blocks::1024          745                       # Occupied blocks per task id
system.cpu.icache.tags.age_task_id_blocks_1024::4          745                       # Occupied blocks per task id
system.cpu.icache.tags.occ_task_id_percent::1024     0.727539                       # Percentage of cache occupancy per task id
system.cpu.icache.tags.tag_accesses          85785323                       # Number of tag accesses
system.cpu.icache.tags.data_accesses         85785323                       # Number of data accesses
system.cpu.icache.tags.power_state.pwrStateResidencyTicks::UNDEFINED 1166565541000                       # Cumulative time (in ticks) in various power states
system.cpu.itb.instHits                             0                       # ITB inst hits
system.cpu.itb.instMisses                           0                       # ITB inst misses
system.cpu.itb.readHits                             0                       # DTB read hits
system.cpu.itb.readMisses                           0                       # DTB read misses
system.cpu.itb.writeHits                            0                       # DTB write hits
system.cpu.itb.writeMisses                          0                       # DTB write misses
system.cpu.itb.inserts                              0                       # Number of times an entry is inserted into the TLB
system.cpu.itb.flushTlb                             0                       # Number of times complete TLB was flushed
system.cpu.itb.flushTlbMva                          0                       # Number of times TLB was flushed by MVA
system.cpu.itb.flushTlbMvaAsid                      0                       # Number of times TLB was flushed by MVA & ASID
system.cpu.itb.flushTlbAsid                         0                       # Number of times TLB was flushed by ASID
system.cpu.itb.flushedEntries                       0                       # Number of entries that have been flushed from TLB
system.cpu.itb.alignFaults                          0                       # Number of TLB faults due to alignment restrictions
system.cpu.itb.prefetchFaults                       0                       # Number of TLB faults due to prefetch
system.cpu.itb.domainFaults                         0                       # Number of TLB faults due to domain restrictions
system.cpu.itb.permsFaults                          0                       # Number of TLB faults due to permissions restrictions
system.cpu.itb.readAccesses                         0                       # DTB read accesses
system.cpu.itb.writeAccesses                        0                       # DTB write accesses
system.cpu.itb.instAccesses                         0                       # ITB inst accesses
system.cpu.itb.hits                                 0                       # Total TLB (inst and data) hits
system.cpu.itb.misses                               0                       # Total TLB (inst and data) misses
system.cpu.itb.accesses                             0                       # Total TLB (inst and data) accesses
system.cpu.itb.stage2_mmu.stage2_tlb.instHits            0                       # ITB inst hits
system.cpu.itb.stage2_mmu.stage2_tlb.instMisses            0                       # ITB inst misses
system.cpu.itb.stage2_mmu.stage2_tlb.readHits            0                       # DTB read hits
system.cpu.itb.stage2_mmu.stage2_tlb.readMisses            0                       # DTB read misses
system.cpu.itb.stage2_mmu.stage2_tlb.writeHits            0                       # DTB write hits
system.cpu.itb.stage2_mmu.stage2_tlb.writeMisses            0                       # DTB write misses
system.cpu.itb.stage2_mmu.stage2_tlb.inserts            0                       # Number of times an entry is inserted into the TLB
system.cpu.itb.stage2_mmu.stage2_tlb.flushTlb            0                       # Number of times complete TLB was flushed
system.cpu.itb.stage2_mmu.stage2_tlb.flushTlbMva            0                       # Number of times TLB was flushed by MVA
system.cpu.itb.stage2_mmu.stage2_tlb.flushTlbMvaAsid            0                       # Number of times TLB was flushed by MVA & ASID
system.cpu.itb.stage2_mmu.stage2_tlb.flushTlbAsid            0                       # Number of times TLB was flushed by ASID
system.cpu.itb.stage2_mmu.stage2_tlb.flushedEntries            0                       # Number of entries that have been flushed from TLB
system.cpu.itb.stage2_mmu.stage2_tlb.alignFaults            0                       # Number of TLB faults due to alignment restrictions
system.cpu.itb.stage2_mmu.stage2_tlb.prefetchFaults            0                       # Number of TLB faults due to prefetch
system.cpu.itb.stage2_mmu.stage2_tlb.domainFaults            0                       # Number of TLB faults due to domain restrictions
system.cpu.itb.stage2_mmu.stage2_tlb.permsFaults            0                       # Number of TLB faults due to permissions restrictions
system.cpu.itb.stage2_mmu.stage2_tlb.readAccesses            0                       # DTB read accesses
system.cpu.itb.stage2_mmu.stage2_tlb.writeAccesses            0                       # DTB write accesses
system.cpu.itb.stage2_mmu.stage2_tlb.instAccesses            0                       # ITB inst accesses
system.cpu.itb.stage2_mmu.stage2_tlb.hits            0                       # Total TLB (inst and data) hits
system.cpu.itb.stage2_mmu.stage2_tlb.misses            0                       # Total TLB (inst and data) misses
system.cpu.itb.stage2_mmu.stage2_tlb.accesses            0                       # Total TLB (inst and data) accesses
system.cpu.itb.stage2_mmu.stage2_tlb.walker.walks            0                       # Table walker walks requested
system.cpu.itb.stage2_mmu.stage2_tlb.walker.requestOrigin_Requested::Data            0                       # Table walker requests started/completed, data/inst
system.cpu.itb.stage2_mmu.stage2_tlb.walker.requestOrigin_Requested::Inst            0                       # Table walker requests started/completed, data/inst
system.cpu.itb.stage2_mmu.stage2_tlb.walker.requestOrigin_Requested::total            0                       # Table walker requests started/completed, data/inst
system.cpu.itb.stage2_mmu.stage2_tlb.walker.requestOrigin_Completed::Data            0                       # Table walker requests started/completed, data/inst
system.cpu.itb.stage2_mmu.stage2_tlb.walker.requestOrigin_Completed::Inst            0                       # Table walker requests started/completed, data/inst
system.cpu.itb.stage2_mmu.stage2_tlb.walker.requestOrigin_Completed::total            0                       # Table walker requests started/completed, data/inst
system.cpu.itb.stage2_mmu.stage2_tlb.walker.requestOrigin::total            0                       # Table walker requests started/completed, data/inst
system.cpu.itb.stage2_mmu.stage2_tlb.walker.power_state.pwrStateResidencyTicks::UNDEFINED 1166565541000                       # Cumulative time (in ticks) in various power states
system.cpu.itb.walker.walks                         0                       # Table walker walks requested
system.cpu.itb.walker.requestOrigin_Requested::Data            0                       # Table walker requests started/completed, data/inst
system.cpu.itb.walker.requestOrigin_Requested::Inst            0                       # Table walker requests started/completed, data/inst
system.cpu.itb.walker.requestOrigin_Requested::total            0                       # Table walker requests started/completed, data/inst
system.cpu.itb.walker.requestOrigin_Completed::Data            0                       # Table walker requests started/completed, data/inst
system.cpu.itb.walker.requestOrigin_Completed::Inst            0                       # Table walker requests started/completed, data/inst
system.cpu.itb.walker.requestOrigin_Completed::total            0                       # Table walker requests started/completed, data/inst
system.cpu.itb.walker.requestOrigin::total            0                       # Table walker requests started/completed, data/inst
system.cpu.itb.walker.power_state.pwrStateResidencyTicks::UNDEFINED 1166565541000                       # Cumulative time (in ticks) in various power states
system.cpu.power_state.pwrStateResidencyTicks::ON 1166565541000                       # Cumulative time (in ticks) in various power states
system.cpu.thread0.numInsts                 100000000                       # Number of Instructions committed
system.cpu.thread0.numOps                   184218810                       # Number of Ops committed
system.cpu.thread0.numMemRefs                       0                       # Number of Memory References
system.cpu_clk_domain.clock                      1000                       # Clock period in ticks
system.cpu_voltage_domain.voltage                   1                       # Voltage in Volts
system.l2.demand_hits::.cpu.inst                   44                       # number of demand (read+write) hits
system.l2.demand_hits::.cpu.data                   67                       # number of demand (read+write) hits
system.l2.demand_hits::total                      111                       # number of demand (read+write) hits
system.l2.overall_hits::.cpu.inst                  44                       # number of overall hits
system.l2.overall_hits::.cpu.data                  67                       # number of overall hits
system.l2.overall_hits::total                     111                       # number of overall hits
system.l2.demand_misses::.cpu.inst                909                       # number of demand (read+write) misses
system.l2.demand_misses::.cpu.data           10526270                       # number of demand (read+write) misses
system.l2.demand_misses::total               10527179                       # number of demand (read+write) misses
system.l2.overall_misses::.cpu.inst               909                       # number of overall misses
system.l2.overall_misses::.cpu.data          10526270                       # number of overall misses
system.l2.overall_misses::total              10527179                       # number of overall misses
system.l2.demand_miss_latency::.cpu.inst     90027000                       # number of demand (read+write) miss cycles
system.l2.demand_miss_latency::.cpu.data 1023990821000                       # number of demand (read+write) miss cycles
system.l2.demand_miss_latency::total     1024080848000                       # number of demand (read+write) miss cycles
system.l2.overall_miss_latency::.cpu.inst     90027000                       # number of overall miss cycles
system.l2.overall_miss_latency::.cpu.data 1023990821000                       # number of overall miss cycles
system.l2.overall_miss_latency::total    1024080848000                       # number of overall miss cycles
system.l2.demand_accesses::.cpu.inst              953                       # number of demand (read+write) accesses
system.l2.demand_accesses::.cpu.data         10526337                       # number of demand (read+write) accesses
system.l2.demand_accesses::total             10527290                       # number of demand (read+write) accesses
system.l2.overall_accesses::.cpu.inst             953                       # number of overall (read+write) accesses
system.l2.overall_accesses::.cpu.data        10526337                       # number of overall (read+write) accesses
system.l2.overall_accesses::total            10527290                       # number of overall (read+write) accesses
system.l2.demand_miss_rate::.cpu.inst        0.953830                       # miss rate for demand accesses
system.l2.demand_miss_rate::.cpu.data        0.999994                       # miss rate for demand accesses
system.l2.demand_miss_rate::total            0.999989                       # miss rate for demand accesses
system.l2.overall_miss_rate::.cpu.inst       0.953830                       # miss rate for overall accesses
system.l2.overall_miss_rate::.cpu.data       0.999994                       # miss rate for overall accesses
system.l2.overall_miss_rate::total           0.999989                       # miss rate for overall accesses
system.l2.demand_avg_miss_latency::.cpu.inst 99039.603960                       # average overall miss latency
system.l2.demand_avg_miss_latency::.cpu.data 97279.551161                       # average overall miss latency
system.l2.demand_avg_miss_latency::total 97279.703138                       # average overall miss latency
system.l2.overall_avg_miss_latency::.cpu.inst 99039.603960                       # average overall miss latency
system.l2.overall_avg_miss_latency::.cpu.data 97279.551161                       # average overall miss latency
system.l2.overall_avg_miss_latency::total 97279.703138                       # average overall miss latency
system.l2.blocked_cycles::no_mshrs                  0                       # number of cycles access was blocked
system.l2.blocked_cycles::no_targets                0                       # number of cycles access was blocked
system.l2.blocked::no_mshrs                         0                       # number of cycles access was blocked
system.l2.blocked::no_targets                       0                       # number of cycles access was blocked
system.l2.avg_blocked_cycles::no_mshrs            nan                       # average number of cycles each access was blocked
system.l2.avg_blocked_cycles::no_targets          nan                       # average number of cycles each access was blocked
system.l2.writebacks::.writebacks            10460351                       # number of writebacks
system.l2.writebacks::total                  10460351                       # number of writebacks
system.l2.demand_mshr_hits::.cpu.inst               1                       # number of demand (read+write) MSHR hits
system.l2.demand_mshr_hits::.cpu.data               4                       # number of demand (read+write) MSHR hits
system.l2.demand_mshr_hits::total                   5                       # number of demand (read+write) MSHR hits
system.l2.overall_mshr_hits::.cpu.inst              1                       # number of overall MSHR hits
system.l2.overall_mshr_hits::.cpu.data              4                       # number of overall MSHR hits
system.l2.overall_mshr_hits::total                  5                       # number of overall MSHR hits
system.l2.demand_mshr_misses::.cpu.inst           908                       # number of demand (read+write) MSHR misses
system.l2.demand_mshr_misses::.cpu.data      10526266                       # number of demand (read+write) MSHR misses
system.l2.demand_mshr_misses::total          10527174                       # number of demand (read+write) MSHR misses
system.l2.overall_mshr_misses::.cpu.inst          908                       # number of overall MSHR misses
system.l2.overall_mshr_misses::.cpu.data     10526266                       # number of overall MSHR misses
system.l2.overall_mshr_misses::total         10527174                       # number of overall MSHR misses
system.l2.demand_mshr_miss_latency::.cpu.inst     71801000                       # number of demand (read+write) MSHR miss cycles
system.l2.demand_mshr_miss_latency::.cpu.data 813465215000                       # number of demand (read+write) MSHR miss cycles
system.l2.demand_mshr_miss_latency::total 813537016000                       # number of demand (read+write) MSHR miss cycles
system.l2.overall_mshr_miss_latency::.cpu.inst     71801000                       # number of overall MSHR miss cycles
system.l2.overall_mshr_miss_latency::.cpu.data 813465215000                       # number of overall MSHR miss cycles
system.l2.overall_mshr_miss_latency::total 813537016000                       # number of overall MSHR miss cycles
system.l2.demand_mshr_miss_rate::.cpu.inst     0.952781                       # mshr miss rate for demand accesses
system.l2.demand_mshr_miss_rate::.cpu.data     0.999993                       # mshr miss rate for demand accesses
system.l2.demand_mshr_miss_rate::total       0.999989                       # mshr miss rate for demand accesses
system.l2.overall_mshr_miss_rate::.cpu.inst     0.952781                       # mshr miss rate for overall accesses
system.l2.overall_mshr_miss_rate::.cpu.data     0.999993                       # mshr miss rate for overall accesses
system.l2.overall_mshr_miss_rate::total      0.999989                       # mshr miss rate for overall accesses
system.l2.demand_avg_mshr_miss_latency::.cpu.inst 79075.991189                       # average overall mshr miss latency
system.l2.demand_avg_mshr_miss_latency::.cpu.data 77279.560957                       # average overall mshr miss latency
system.l2.demand_avg_mshr_miss_latency::total 77279.715905                       # average overall mshr miss latency
system.l2.overall_avg_mshr_miss_latency::.cpu.inst 79075.991189                       # average overall mshr miss latency
system.l2.overall_avg_mshr_miss_latency::.cpu.data 77279.560957                       # average overall mshr miss latency
system.l2.overall_avg_mshr_miss_latency::total 77279.715905                       # average overall mshr miss latency
system.l2.replacements                       10461736                       # number of replacements
system.l2.WritebackDirty_hits::.writebacks     10523870                       # number of WritebackDirty hits
system.l2.WritebackDirty_hits::total         10523870                       # number of WritebackDirty hits
system.l2.WritebackDirty_accesses::.writebacks     10523870                       # number of WritebackDirty accesses(hits+misses)
system.l2.WritebackDirty_accesses::total     10523870                       # number of WritebackDirty accesses(hits+misses)
system.l2.WritebackClean_hits::.writebacks          205                       # number of WritebackClean hits
system.l2.WritebackClean_hits::total              205                       # number of WritebackClean hits
system.l2.WritebackClean_accesses::.writebacks          205                       # number of WritebackClean accesses(hits+misses)
system.l2.WritebackClean_accesses::total          205                       # number of WritebackClean accesses(hits+misses)
system.l2.ReadExReq_hits::.cpu.data                14                       # number of ReadExReq hits
system.l2.ReadExReq_hits::total                    14                       # number of ReadExReq hits
system.l2.ReadExReq_misses::.cpu.data        10525851                       # number of ReadExReq misses
system.l2.ReadExReq_misses::total            10525851                       # number of ReadExReq misses
system.l2.ReadExReq_miss_latency::.cpu.data 1023946549000                       # number of ReadExReq miss cycles
system.l2.ReadExReq_miss_latency::total  1023946549000                       # number of ReadExReq miss cycles
system.l2.ReadExReq_accesses::.cpu.data      10525865                       # number of ReadExReq accesses(hits+misses)
system.l2.ReadExReq_accesses::total          10525865                       # number of ReadExReq accesses(hits+misses)
system.l2.ReadExReq_miss_rate::.cpu.data     0.999999                       # miss rate for ReadExReq accesses
system.l2.ReadExReq_miss_rate::total         0.999999                       # miss rate for ReadExReq accesses
system.l2.ReadExReq_avg_miss_latency::.cpu.data 97279.217519                       # average ReadExReq miss latency
system.l2.ReadExReq_avg_miss_latency::total 97279.217519                       # average ReadExReq miss latency
system.l2.ReadExReq_mshr_misses::.cpu.data     10525851                       # number of ReadExReq MSHR misses
system.l2.ReadExReq_mshr_misses::total       10525851                       # number of ReadExReq MSHR misses
system.l2.ReadExReq_mshr_miss_latency::.cpu.data 813429549000                       # number of ReadExReq MSHR miss cycles
system.l2.ReadExReq_mshr_miss_latency::total 813429549000                       # number of ReadExReq MSHR miss cycles
system.l2.ReadExReq_mshr_miss_rate::.cpu.data     0.999999                       # mshr miss rate for ReadExReq accesses
system.l2.ReadExReq_mshr_miss_rate::total     0.999999                       # mshr miss rate for ReadExReq accesses
system.l2.ReadExReq_avg_mshr_miss_latency::.cpu.data 77279.219419                       # average ReadExReq mshr miss latency
system.l2.ReadExReq_avg_mshr_miss_latency::total 77279.219419                       # average ReadExReq mshr miss latency
system.l2.ReadCleanReq_hits::.cpu.inst             44                       # number of ReadCleanReq hits
system.l2.ReadCleanReq_hits::total                 44                       # number of ReadCleanReq hits
system.l2.ReadCleanReq_misses::.cpu.inst          909                       # number of ReadCleanReq misses
system.l2.ReadCleanReq_misses::total              909                       # number of ReadCleanReq misses
system.l2.ReadCleanReq_miss_latency::.cpu.inst     90027000                       # number of ReadCleanReq miss cycles
system.l2.ReadCleanReq_miss_latency::total     90027000                       # number of ReadCleanReq miss cycles
system.l2.ReadCleanReq_accesses::.cpu.inst          953                       # number of ReadCleanReq accesses(hits+misses)
system.l2.ReadCleanReq_accesses::total            953                       # number of ReadCleanReq accesses(hits+misses)
system.l2.ReadCleanReq_miss_rate::.cpu.inst     0.953830                       # miss rate for ReadCleanReq accesses
system.l2.ReadCleanReq_miss_rate::total      0.953830                       # miss rate for ReadCleanReq accesses
system.l2.ReadCleanReq_avg_miss_latency::.cpu.inst 99039.603960                       # average ReadCleanReq miss latency
system.l2.ReadCleanReq_avg_miss_latency::total 99039.603960                       # average ReadCleanReq miss latency
system.l2.ReadCleanReq_mshr_hits::.cpu.inst            1                       # number of ReadCleanReq MSHR hits
system.l2.ReadCleanReq_mshr_hits::total             1                       # number of ReadCleanReq MSHR hits
system.l2.ReadCleanReq_mshr_misses::.cpu.inst          908                       # number of ReadCleanReq MSHR misses
system.l2.ReadCleanReq_mshr_misses::total          908                       # number of ReadCleanReq MSHR misses
system.l2.ReadCleanReq_mshr_miss_latency::.cpu.inst     71801000                       # number of ReadCleanReq MSHR miss cycles
system.l2.ReadCleanReq_mshr_miss_latency::total     71801000                       # number of ReadCleanReq MSHR miss cycles
system.l2.ReadCleanReq_mshr_miss_rate::.cpu.inst     0.952781                       # mshr miss rate for ReadCleanReq accesses
system.l2.ReadCleanReq_mshr_miss_rate::total     0.952781                       # mshr miss rate for ReadCleanReq accesses
system.l2.ReadCleanReq_avg_mshr_miss_latency::.cpu.inst 79075.991189                       # average ReadCleanReq mshr miss latency
system.l2.ReadCleanReq_avg_mshr_miss_latency::total 79075.991189                       # average ReadCleanReq mshr miss latency
system.l2.ReadSharedReq_hits::.cpu.data            53                       # number of ReadSharedReq hits
system.l2.ReadSharedReq_hits::total                53                       # number of ReadSharedReq hits
system.l2.ReadSharedReq_misses::.cpu.data          419                       # number of ReadSharedReq misses
system.l2.ReadSharedReq_misses::total             419                       # number of ReadSharedReq misses
system.l2.ReadSharedReq_miss_latency::.cpu.data     44272000                       # number of ReadSharedReq miss cycles
system.l2.ReadSharedReq_miss_latency::total     44272000                       # number of ReadSharedReq miss cycles
system.l2.ReadSharedReq_accesses::.cpu.data          472                       # number of ReadSharedReq accesses(hits+misses)
system.l2.ReadSharedReq_accesses::total           472                       # number of ReadSharedReq accesses(hits+misses)
system.l2.ReadSharedReq_miss_rate::.cpu.data     0.887712                       # miss rate for ReadSharedReq accesses
system.l2.ReadSharedReq_miss_rate::total     0.887712                       # miss rate for ReadSharedReq accesses
system.l2.ReadSharedReq_avg_miss_latency::.cpu.data 105661.097852                       # average ReadSharedReq miss latency
system.l2.ReadSharedReq_avg_miss_latency::total 105661.097852                       # average ReadSharedReq miss latency
system.l2.ReadSharedReq_mshr_hits::.cpu.data            4                       # number of ReadSharedReq MSHR hits
system.l2.ReadSharedReq_mshr_hits::total            4                       # number of ReadSharedReq MSHR hits
system.l2.ReadSharedReq_mshr_misses::.cpu.data          415                       # number of ReadSharedReq MSHR misses
system.l2.ReadSharedReq_mshr_misses::total          415                       # number of ReadSharedReq MSHR misses
system.l2.ReadSharedReq_mshr_miss_latency::.cpu.data     35666000                       # number of ReadSharedReq MSHR miss cycles
system.l2.ReadSharedReq_mshr_miss_latency::total     35666000                       # number of ReadSharedReq MSHR miss cycles
system.l2.ReadSharedReq_mshr_miss_rate::.cpu.data     0.879237                       # mshr miss rate for ReadSharedReq accesses
system.l2.ReadSharedReq_mshr_miss_rate::total     0.879237                       # mshr miss rate for ReadSharedReq accesses
system.l2.ReadSharedReq_avg_mshr_miss_latency::.cpu.data 85942.168675                       # average ReadSharedReq mshr miss latency
system.l2.ReadSharedReq_avg_mshr_miss_latency::total 85942.168675                       # average ReadSharedReq mshr miss latency
system.l2.power_state.pwrStateResidencyTicks::UNDEFINED 1166565541000                       # Cumulative time (in ticks) in various power states
system.l2.tags.tagsinuse                 65055.716938                       # Cycle average of tags in use
system.l2.tags.total_refs                    21051722                       # Total number of references to valid blocks.
system.l2.tags.sampled_refs                  10527272                       # Sample count of references to valid blocks.
system.l2.tags.avg_refs                      1.999732                       # Average number of references to valid blocks.
system.l2.tags.warmup_cycle                     87000                       # Cycle when the warmup percentage was hit.
system.l2.tags.occ_blocks::.writebacks       0.578847                       # Average occupied blocks per requestor
system.l2.tags.occ_blocks::.cpu.inst         7.622353                       # Average occupied blocks per requestor
system.l2.tags.occ_blocks::.cpu.data     65047.515738                       # Average occupied blocks per requestor
system.l2.tags.occ_percent::.writebacks      0.000009                       # Average percentage of cache occupancy
system.l2.tags.occ_percent::.cpu.inst        0.000116                       # Average percentage of cache occupancy
system.l2.tags.occ_percent::.cpu.data        0.992546                       # Average percentage of cache occupancy
system.l2.tags.occ_percent::total            0.992671                       # Average percentage of cache occupancy
system.l2.tags.occ_task_id_blocks::1024         65536                       # Occupied blocks per task id
system.l2.tags.age_task_id_blocks_1024::0           91                       # Occupied blocks per task id
system.l2.tags.age_task_id_blocks_1024::1          817                       # Occupied blocks per task id
system.l2.tags.age_task_id_blocks_1024::2         8164                       # Occupied blocks per task id
system.l2.tags.age_task_id_blocks_1024::3        56464                       # Occupied blocks per task id
system.l2.tags.occ_task_id_percent::1024            1                       # Percentage of cache occupancy per task id
system.l2.tags.tag_accesses                 178941096                       # Number of tag accesses
system.l2.tags.data_accesses                178941096                       # Number of data accesses
system.l2.tags.power_state.pwrStateResidencyTicks::UNDEFINED 1166565541000                       # Cumulative time (in ticks) in various power states
system.mem_ctrls.avgPriority_.writebacks::samples   5231911.00                       # Average QoS priority value for accepted requests
system.mem_ctrls.avgPriority_.cpu.inst::samples       908.00                       # Average QoS priority value for accepted requests
system.mem_ctrls.avgPriority_.cpu.data::samples  10526265.00                       # Average QoS priority value for accepted requests
system.mem_ctrls.priorityMinLatency      0.000000018750                       # per QoS priority minimum request to response latency (s)
system.mem_ctrls.priorityMaxLatency      0.001175012500                       # per QoS priority maximum request to response latency (s)
system.mem_ctrls.numReadWriteTurnArounds       326706                       # Number of turnarounds from READ to WRITE
system.mem_ctrls.numWriteReadTurnArounds       326706                       # Number of turnarounds from WRITE to READ
system.mem_ctrls.numStayReadState            31474757                       # Number of times bus staying in READ state
system.mem_ctrls.numStayWriteState            4916329                       # Number of times bus staying in WRITE state
system.mem_ctrls.readReqs                    10527173                       # Number of read requests accepted
system.mem_ctrls.writeReqs                   10460351                       # Number of write requests accepted
system.mem_ctrls.readBursts                  10527173                       # Number of controller read bursts, including those serviced by the write queue
system.mem_ctrls.writeBursts                 10460351                       # Number of controller write bursts, including those merged in the write queue
system.mem_ctrls.servicedByWrQ                      0                       # Number of controller read bursts serviced by the write queue
system.mem_ctrls.mergedWrBursts               5228440                       # Number of controller write bursts merged with an existing one
system.mem_ctrls.neitherReadNorWriteReqs            0                       # Number of requests that are neither read nor write
system.mem_ctrls.avgRdQLen                       1.00                       # Average read queue length when enqueuing
system.mem_ctrls.avgWrQLen                      25.50                       # Average write queue length when enqueuing
system.mem_ctrls.numRdRetry                         0                       # Number of times read queue was full causing retry
system.mem_ctrls.numWrRetry                         0                       # Number of times write queue was full causing retry
system.mem_ctrls.readPktSize::0                     0                       # Read request sizes (log2)
system.mem_ctrls.readPktSize::1                     0                       # Read request sizes (log2)
system.mem_ctrls.readPktSize::2                     0                       # Read request sizes (log2)
system.mem_ctrls.readPktSize::3                     0                       # Read request sizes (log2)
system.mem_ctrls.readPktSize::4                     0                       # Read request sizes (log2)
system.mem_ctrls.readPktSize::5              10527173                       # Read request sizes (log2)
system.mem_ctrls.writePktSize::0                    0                       # Write request sizes (log2)
[...]
system.mem_ctrls.dram.bw_write::.writebacks    286937356                       # Write bandwidth from this memory (bytes/s)
system.mem_ctrls.dram.bw_write::total       286937356                       # Write bandwidth from this memory (bytes/s)
system.mem_ctrls.dram.bw_total::.writebacks    286937356                       # Total bandwidth to/from this memory (bytes/s)
system.mem_ctrls.dram.bw_total::.cpu.inst        24907                       # Total bandwidth to/from this memory (bytes/s)
system.mem_ctrls.dram.bw_total::.cpu.data    288745440                       # Total bandwidth to/from this memory (bytes/s)
system.mem_ctrls.dram.bw_total::total       575707703                       # Total bandwidth to/from this memory (bytes/s)
system.mem_ctrls.dram.readBursts             10527173                       # Number of DRAM read bursts
system.mem_ctrls.dram.writeBursts             5231884                       # Number of DRAM write bursts
system.mem_ctrls.dram.perBankRdBursts::0       657806                       # Per bank write bursts
system.mem_ctrls.dram.perBankRdBursts::1       658122                       # Per bank write bursts
system.mem_ctrls.dram.perBankRdBursts::2       658055                       # Per bank write bursts
system.mem_ctrls.dram.perBankRdBursts::3       658125                       # Per bank write bursts
system.mem_ctrls.dram.perBankRdBursts::4       657952                       # Per bank write bursts
system.mem_ctrls.dram.perBankRdBursts::5       658115                       # Per bank write bursts
system.mem_ctrls.dram.perBankRdBursts::6       658129                       # Per bank write bursts
system.mem_ctrls.dram.perBankRdBursts::7       658023                       # Per bank write bursts
system.mem_ctrls.dram.perBankRdBursts::8       657774                       # Per bank write bursts
system.mem_ctrls.dram.perBankRdBursts::9       657712                       # Per bank write bursts
system.mem_ctrls.dram.perBankRdBursts::10       657770                       # Per bank write bursts
system.mem_ctrls.dram.perBankRdBursts::11       657809                       # Per bank write bursts
system.mem_ctrls.dram.perBankRdBursts::12       657984                       # Per bank write bursts
system.mem_ctrls.dram.perBankRdBursts::13       658003                       # Per bank write bursts
system.mem_ctrls.dram.perBankRdBursts::14       657937                       # Per bank write bursts
system.mem_ctrls.dram.perBankRdBursts::15       657857                       # Per bank write bursts
system.mem_ctrls.dram.perBankWrBursts::0       326856                       # Per bank write bursts
system.mem_ctrls.dram.perBankWrBursts::1       327141                       # Per bank write bursts
system.mem_ctrls.dram.perBankWrBursts::2       327102                       # Per bank write bursts
system.mem_ctrls.dram.perBankWrBursts::3       327107                       # Per bank write bursts
system.mem_ctrls.dram.perBankWrBursts::4       327004                       # Per bank write bursts
system.mem_ctrls.dram.perBankWrBursts::5       327018                       # Per bank write bursts
system.mem_ctrls.dram.perBankWrBursts::6       327045                       # Per bank write bursts
system.mem_ctrls.dram.perBankWrBursts::7       327015                       # Per bank write bursts
system.mem_ctrls.dram.perBankWrBursts::8       326912                       # Per bank write bursts
system.mem_ctrls.dram.perBankWrBursts::9       326817                       # Per bank write bursts
system.mem_ctrls.dram.perBankWrBursts::10       326861                       # Per bank write bursts
system.mem_ctrls.dram.perBankWrBursts::11       326872                       # Per bank write bursts
system.mem_ctrls.dram.perBankWrBursts::12       327142                       # Per bank write bursts
system.mem_ctrls.dram.perBankWrBursts::13       327028                       # Per bank write bursts
system.mem_ctrls.dram.perBankWrBursts::14       327014                       # Per bank write bursts
system.mem_ctrls.dram.perBankWrBursts::15       326950                       # Per bank write bursts
system.mem_ctrls.dram.totQLat             76486437500                       # Total ticks spent queuing
system.mem_ctrls.dram.totBusLat           52635865000                       # Total ticks spent in databus transfers
system.mem_ctrls.dram.totMemAccLat       273870931250                       # Total ticks spent from burst creation until serviced by the DRAM
system.mem_ctrls.dram.avgQLat                 7265.62                       # Average queueing delay per DRAM burst
system.mem_ctrls.dram.avgBusLat               5000.00                       # Average bus latency per DRAM burst
system.mem_ctrls.dram.avgMemAccLat           26015.62                       # Average memory access latency per DRAM burst
system.mem_ctrls.dram.readRowHits             9699527                       # Number of row buffer hits during reads
system.mem_ctrls.dram.writeRowHits            4857834                       # Number of row buffer hits during writes
system.mem_ctrls.dram.readRowHitRate            92.14                       # Row buffer hit rate for reads
system.mem_ctrls.dram.writeRowHitRate           92.85                       # Row buffer hit rate for writes
system.mem_ctrls.dram.bytesPerActivate::samples      1201695                       # Bytes accessed per row activation
system.mem_ctrls.dram.bytesPerActivate::mean   839.297266                       # Bytes accessed per row activation
system.mem_ctrls.dram.bytesPerActivate::gmean   728.423319                       # Bytes accessed per row activation
system.mem_ctrls.dram.bytesPerActivate::stdev   302.583788                       # Bytes accessed per row activation
system.mem_ctrls.dram.bytesPerActivate::0-127        42559      3.54%      3.54% # Bytes accessed per row activation
system.mem_ctrls.dram.bytesPerActivate::128-255        46184      3.84%      7.38% # Bytes accessed per row activation
system.mem_ctrls.dram.bytesPerActivate::256-383        66856      5.56%     12.95% # Bytes accessed per row activation
system.mem_ctrls.dram.bytesPerActivate::384-511        51103      4.25%     17.20% # Bytes accessed per row activation
system.mem_ctrls.dram.bytesPerActivate::512-639        57525      4.79%     21.99% # Bytes accessed per row activation
system.mem_ctrls.dram.bytesPerActivate::640-767        52307      4.35%     26.34% # Bytes accessed per row activation
system.mem_ctrls.dram.bytesPerActivate::768-895        49668      4.13%     30.47% # Bytes accessed per row activation
system.mem_ctrls.dram.bytesPerActivate::896-1023        48181      4.01%     34.48% # Bytes accessed per row activation
system.mem_ctrls.dram.bytesPerActivate::1024-1151       787312     65.52%    100.00% # Bytes accessed per row activation
system.mem_ctrls.dram.bytesPerActivate::total      1201695                       # Bytes accessed per row activation
system.mem_ctrls.dram.bytesRead             673739072                       # Total number of bytes read from DRAM
system.mem_ctrls.dram.bytesWritten          334840576                       # Total number of bytes written to DRAM
system.mem_ctrls.dram.avgRdBW              577.540694                       # Average DRAM read bandwidth in MiBytes/s
system.mem_ctrls.dram.avgWrBW              287.031088                       # Average DRAM write bandwidth in MiBytes/s
system.mem_ctrls.dram.peakBW                 12800.00                       # Theoretical peak bandwidth in MiByte/s
system.mem_ctrls.dram.busUtil                    6.75                       # Data bus utilization in percentage
system.mem_ctrls.dram.busUtilRead                4.51                       # Data bus utilization in percentage for reads
system.mem_ctrls.dram.busUtilWrite               2.24                       # Data bus utilization in percentage for writes
system.mem_ctrls.dram.pageHitRate               92.37                       # Row buffer hit rate, read and write combined
system.mem_ctrls.dram.power_state.pwrStateResidencyTicks::UNDEFINED 1166565541000                       # Cumulative time (in ticks) in various power states
system.mem_ctrls.dram.rank0.actEnergy      4290554520                       # Energy for activate commands per rank (pJ)
system.mem_ctrls.dram.rank0.preEnergy      2280480015                       # Energy for precharge commands per rank (pJ)
system.mem_ctrls.dram.rank0.readEnergy    37587294780                       # Energy for read commands per rank (pJ)
system.mem_ctrls.dram.rank0.writeEnergy   13657023360                       # Energy for write commands per rank (pJ)
system.mem_ctrls.dram.rank0.refreshEnergy 92087208720.000015                       # Energy for refresh commands per rank (pJ)
system.mem_ctrls.dram.rank0.actBackEnergy 270306419160                       # Energy for active background per rank (pJ)
system.mem_ctrls.dram.rank0.preBackEnergy 220334709600                       # Energy for precharge background per rank (pJ)
system.mem_ctrls.dram.rank0.actPowerDownEnergy            0                       # Energy for active power-down per rank (pJ)
system.mem_ctrls.dram.rank0.prePowerDownEnergy            0                       # Energy for precharge power-down per rank (pJ)
system.mem_ctrls.dram.rank0.selfRefreshEnergy            0                       # Energy for self refresh per rank (pJ)
system.mem_ctrls.dram.rank0.totalEnergy  640543690155                       # Total energy per rank (pJ)
system.mem_ctrls.dram.rank0.averagePower   549.085043                       # Core power per rank (mW)
system.mem_ctrls.dram.rank0.totalIdleTime            0                       # Total Idle time Per DRAM Rank
system.mem_ctrls.dram.rank0.pwrStateTime::IDLE 565333219000                       # Time in different power states
system.mem_ctrls.dram.rank0.pwrStateTime::REF  38953980000                       # Time in different power states
system.mem_ctrls.dram.rank0.pwrStateTime::SREF            0                       # Time in different power states
system.mem_ctrls.dram.rank0.pwrStateTime::PRE_PDN            0                       # Time in different power states
system.mem_ctrls.dram.rank0.pwrStateTime::ACT 562278342000                       # Time in different power states
system.mem_ctrls.dram.rank0.pwrStateTime::ACT_PDN            0                       # Time in different power states
system.mem_ctrls.dram.rank1.actEnergy      4289554920                       # Energy for activate commands per rank (pJ)
system.mem_ctrls.dram.rank1.preEnergy      2279952510                       # Energy for precharge commands per rank (pJ)
system.mem_ctrls.dram.rank1.readEnergy    37576720440                       # Energy for read commands per rank (pJ)
system.mem_ctrls.dram.rank1.writeEnergy   13653411120                       # Energy for write commands per rank (pJ)
system.mem_ctrls.dram.rank1.refreshEnergy 92087208720.000015                       # Energy for refresh commands per rank (pJ)
system.mem_ctrls.dram.rank1.actBackEnergy 270245695920                       # Energy for active background per rank (pJ)
system.mem_ctrls.dram.rank1.preBackEnergy 220385844960                       # Energy for precharge background per rank (pJ)
system.mem_ctrls.dram.rank1.actPowerDownEnergy            0                       # Energy for active power-down per rank (pJ)
system.mem_ctrls.dram.rank1.prePowerDownEnergy            0                       # Energy for precharge power-down per rank (pJ)
system.mem_ctrls.dram.rank1.selfRefreshEnergy            0                       # Energy for self refresh per rank (pJ)
system.mem_ctrls.dram.rank1.totalEnergy  640518388590                       # Total energy per rank (pJ)
system.mem_ctrls.dram.rank1.averagePower   549.063354                       # Core power per rank (mW)
system.mem_ctrls.dram.rank1.totalIdleTime            0                       # Total Idle time Per DRAM Rank
system.mem_ctrls.dram.rank1.pwrStateTime::IDLE 565466493500                       # Time in different power states
system.mem_ctrls.dram.rank1.pwrStateTime::REF  38953980000                       # Time in different power states
system.mem_ctrls.dram.rank1.pwrStateTime::SREF            0                       # Time in different power states
system.mem_ctrls.dram.rank1.pwrStateTime::PRE_PDN            0                       # Time in different power states
system.mem_ctrls.dram.rank1.pwrStateTime::ACT 562145067500                       # Time in different power states
system.mem_ctrls.dram.rank1.pwrStateTime::ACT_PDN            0                       # Time in different power states
system.mem_ctrls.power_state.pwrStateResidencyTicks::UNDEFINED 1166565541000                       # Cumulative time (in ticks) in various power states
system.membus.trans_dist::ReadResp               1323                       # Transaction distribution
system.membus.trans_dist::WritebackDirty     10460351                       # Transaction distribution
system.membus.trans_dist::CleanEvict              532                       # Transaction distribution
system.membus.trans_dist::ReadExReq          10525850                       # Transaction distribution
system.membus.trans_dist::ReadExResp         10525850                       # Transaction distribution
system.membus.trans_dist::ReadSharedReq          1323                       # Transaction distribution
system.membus.pkt_count_system.l2.mem_side_port::system.mem_ctrls.port     31515229                       # Packet count per connected requestor and responder (bytes)
system.membus.pkt_count::total               31515229                       # Packet count per connected requestor and responder (bytes)
system.membus.pkt_size_system.l2.mem_side_port::system.mem_ctrls.port    671600768                       # Cumulative packet size per connected requestor and responder (bytes)
system.membus.pkt_size::total               671600768                       # Cumulative packet size per connected requestor and responder (bytes)
system.membus.snoops                                0                       # Total snoops (count)
system.membus.snoopTraffic                          0                       # Total snoop traffic (bytes)
system.membus.snoop_fanout::samples          10527173                       # Request fanout histogram
system.membus.snoop_fanout::mean                    0                       # Request fanout histogram
system.membus.snoop_fanout::stdev                   0                       # Request fanout histogram
system.membus.snoop_fanout::underflows              0      0.00%      0.00% # Request fanout histogram
system.membus.snoop_fanout::0                10527173    100.00%    100.00% # Request fanout histogram
system.membus.snoop_fanout::1                       0      0.00%    100.00% # Request fanout histogram
system.membus.snoop_fanout::overflows               0      0.00%    100.00% # Request fanout histogram
system.membus.snoop_fanout::min_value               0                       # Request fanout histogram
system.membus.snoop_fanout::max_value               0                       # Request fanout histogram
system.membus.snoop_fanout::total            10527173                       # Request fanout histogram
system.membus.power_state.pwrStateResidencyTicks::UNDEFINED 1166565541000                       # Cumulative time (in ticks) in various power states
system.membus.reqLayer0.occupancy         41908758000                       # Layer occupancy (ticks)
system.membus.reqLayer0.utilization               3.6                       # Layer utilization (%)
system.membus.respLayer1.occupancy        34361756750                       # Layer occupancy (ticks)
system.membus.respLayer1.utilization              2.9                       # Layer utilization (%)
system.tol2bus.trans_dist::ReadResp              1425                       # Transaction distribution
system.tol2bus.trans_dist::WritebackDirty     20984221                       # Transaction distribution
system.tol2bus.trans_dist::WritebackClean          208                       # Transaction distribution
system.tol2bus.trans_dist::CleanEvict            1803                       # Transaction distribution
system.tol2bus.trans_dist::ReadExReq         10525865                       # Transaction distribution
system.tol2bus.trans_dist::ReadExResp        10525864                       # Transaction distribution
system.tol2bus.trans_dist::ReadCleanReq           953                       # Transaction distribution
system.tol2bus.trans_dist::ReadSharedReq          472                       # Transaction distribution
system.tol2bus.pkt_count_system.cpu.icache.mem_side_port::system.l2.cpu_side_port         2114                       # Packet count per connected requestor and responder (bytes)
system.tol2bus.pkt_count_system.cpu.dcache.mem_side_port::system.l2.cpu_side_port     31576961                       # Packet count per connected requestor and responder (bytes)
system.tol2bus.pkt_count::total              31579075                       # Packet count per connected requestor and responder (bytes)
system.tol2bus.pkt_size_system.cpu.icache.mem_side_port::system.l2.cpu_side_port        37152                       # Cumulative packet size per connected requestor and responder (bytes)
system.tol2bus.pkt_size_system.cpu.dcache.mem_side_port::system.l2.cpu_side_port    673606592                       # Cumulative packet size per connected requestor and responder (bytes)
system.tol2bus.pkt_size::total              673643744                       # Cumulative packet size per connected requestor and responder (bytes)
system.tol2bus.snoops                        10461736                       # Total snoops (count)
system.tol2bus.snoopTraffic                 334731232                       # Total snoop traffic (bytes)
system.tol2bus.snoop_fanout::samples         20989026                       # Request fanout histogram
system.tol2bus.snoop_fanout::mean            0.000043                       # Request fanout histogram
system.tol2bus.snoop_fanout::stdev           0.006588                       # Request fanout histogram
system.tol2bus.snoop_fanout::underflows             0      0.00%      0.00% # Request fanout histogram
system.tol2bus.snoop_fanout::0               20988115    100.00%    100.00% # Request fanout histogram
system.tol2bus.snoop_fanout::1                    911      0.00%    100.00% # Request fanout histogram
system.tol2bus.snoop_fanout::2                      0      0.00%    100.00% # Request fanout histogram
system.tol2bus.snoop_fanout::overflows              0      0.00%    100.00% # Request fanout histogram
system.tol2bus.snoop_fanout::min_value              0                       # Request fanout histogram
system.tol2bus.snoop_fanout::max_value              1                       # Request fanout histogram
system.tol2bus.snoop_fanout::total           20989026                       # Request fanout histogram
system.tol2bus.power_state.pwrStateResidencyTicks::UNDEFINED 1166565541000                       # Cumulative time (in ticks) in various power states
system.tol2bus.reqLayer0.occupancy        31575864000                       # Layer occupancy (ticks)
system.tol2bus.reqLayer0.utilization              2.7                       # Layer utilization (%)
system.tol2bus.respLayer0.occupancy           1906999                       # Layer occupancy (ticks)
system.tol2bus.respLayer0.utilization             0.0                       # Layer utilization (%)
system.tol2bus.respLayer1.occupancy       21052675996                       # Layer occupancy (ticks)
system.tol2bus.respLayer1.utilization             1.8                       # Layer utilization (%)
system.voltage_domain.voltage                       1                       # Voltage in Volts

---------- End Simulation Statistics   ----------
