
---------- Begin Simulation Statistics ----------
final_tick                               498482222000                       # Number of ticks from beginning of simulation (restored from checkpoints and never reset)
host_inst_rate                                 148321                       # Simulator instruction rate (inst/s)
host_mem_usage                                 661280                       # Number of bytes of host memory used
host_op_rate                                   273236                       # Simulator op (including micro ops) rate (op/s)
host_seconds                                   674.21                       # Real time elapsed on the host
host_tick_rate                              739355533                       # Simulator tick rate (ticks/s)
sim_freq                                 1000000000000                       # Frequency of simulated ticks
sim_insts                                   100000000                       # Number of instructions simulated
sim_ops                                     184218810                       # Number of ops (including micro ops) simulated
sim_seconds                                  0.498482                       # Number of seconds simulated
sim_ticks                                498482222000                       # Number of ticks simulated
system.cpu.committedInsts                   100000000                       # Number of instructions committed
system.cpu.committedOps                     184218810                       # Number of ops (including micro ops) committed
system.cpu.cpi                               4.984822                       # CPI: cycles per instruction
system.cpu.discardedOps                          4363                       # Number of ops (including micro ops) which were discarded before commit
system.cpu.idleCycles                       279430247                       # Total number of cycles that the object has spent stopped
system.cpu.ipc                               0.200609                       # IPC: instructions per cycle
system.cpu.numCycles                        498482222                       # number of cpu cycles simulated
system.cpu.numFetchSuspends                         0                       # Number of times Execute suspended instruction fetching
system.cpu.numWorkItemsCompleted                    0                       # number of work items this cpu completed
system.cpu.numWorkItemsStarted                      0                       # number of work items this cpu started
system.cpu.op_class_0::No_OpClass                   0      0.00%      0.00% # Class of committed instruction
system.cpu.op_class_0::IntAlu                97640467     53.00%     53.00% # Class of committed instruction
system.cpu.op_class_0::IntMult                 114702      0.06%     53.06% # Class of committed instruction
system.cpu.op_class_0::IntDiv                       0      0.00%     53.06% # Class of committed instruction
system.cpu.op_class_0::FloatAdd                     0      0.00%     53.06% # Class of committed instruction
system.cpu.op_class_0::FloatCmp                     0      0.00%     53.06% # Class of committed instruction
system.cpu.op_class_0::FloatCvt                     0      0.00%     53.06% # Class of committed instruction
system.cpu.op_class_0::FloatMult                    0      0.00%     53.06% # Class of committed instruction
system.cpu.op_class_0::FloatMultAcc                 0      0.00%     53.06% # Class of committed instruction
system.cpu.op_class_0::FloatDiv                     0      0.00%     53.06% # Class of committed instruction
system.cpu.op_class_0::FloatMisc                    0      0.00%     53.06% # Class of committed instruction
system.cpu.op_class_0::FloatSqrt                    0      0.00%     53.06% # Class of committed instruction
system.cpu.op_class_0::SimdAdd                      8      0.00%     53.06% # Class of committed instruction
system.cpu.op_class_0::SimdAddAcc                   0      0.00%     53.06% # Class of committed instruction
system.cpu.op_class_0::SimdAlu                     10      0.00%     53.06% # Class of committed instruction
system.cpu.op_class_0::SimdCmp                      8      0.00%     53.06% # Class of committed instruction
system.cpu.op_class_0::SimdCvt                      0      0.00%     53.06% # Class of committed instruction
system.cpu.op_class_0::SimdMisc                     1      0.00%     53.06% # Class of committed instruction
system.cpu.op_class_0::SimdMult                     0      0.00%     53.06% # Class of committed instruction
system.cpu.op_class_0::SimdMultAcc                  0      0.00%     53.06% # Class of committed instruction
system.cpu.op_class_0::SimdShift                    0      0.00%     53.06% # Class of committed instruction
system.cpu.op_class_0::SimdShiftAcc                 0      0.00%     53.06% # Class of committed instruction
system.cpu.op_class_0::SimdDiv                      0      0.00%     53.06% # Class of committed instruction
system.cpu.op_class_0::SimdSqrt                     0      0.00%     53.06% # Class of committed instruction
system.cpu.op_class_0::SimdFloatAdd                 0      0.00%     53.06% # Class of committed instruction
system.cpu.op_class_0::SimdFloatAlu                 0      0.00%     53.06% # Class of committed instruction
system.cpu.op_class_0::SimdFloatCmp                 0      0.00%     53.06% # Class of committed instruction
system.cpu.op_class_0::SimdFloatCvt                 0      0.00%     53.06% # Class of committed instruction
system.cpu.op_class_0::SimdFloatDiv                 0      0.00%     53.06% # Class of committed instruction
system.cpu.op_class_0::SimdFloatMisc               24      0.00%     53.06% # Class of committed instruction
system.cpu.op_class_0::SimdFloatMult                0      0.00%     53.06% # Class of committed instruction
system.cpu.op_class_0::SimdFloatMultAcc             0      0.00%     53.06% # Class of committed instruction
system.cpu.op_class_0::SimdFloatSqrt                0      0.00%     53.06% # Class of committed instruction
system.cpu.op_class_0::SimdReduceAdd                0      0.00%     53.06% # Class of committed instruction
system.cpu.op_class_0::SimdReduceAlu                0      0.00%     53.06% # Class of committed instruction
system.cpu.op_class_0::SimdReduceCmp                0      0.00%     53.06% # Class of committed instruction
system.cpu.op_class_0::SimdFloatReduceAdd            0      0.00%     53.06% # Class of committed instruction
system.cpu.op_class_0::SimdFloatReduceCmp            0      0.00%     53.06% # Class of committed instruction
system.cpu.op_class_0::SimdAes                      0      0.00%     53.06% # Class of committed instruction
system.cpu.op_class_0::SimdAesMix                   0      0.00%     53.06% # Class of committed instruction
system.cpu.op_class_0::SimdSha1Hash                 0      0.00%     53.06% # Class of committed instruction
system.cpu.op_class_0::SimdSha1Hash2                0      0.00%     53.06% # Class of committed instruction
system.cpu.op_class_0::SimdSha256Hash               0      0.00%     53.06% # Class of committed instruction
system.cpu.op_class_0::SimdSha256Hash2              0      0.00%     53.06% # Class of committed instruction
system.cpu.op_class_0::SimdShaSigma2                0      0.00%     53.06% # Class of committed instruction
system.cpu.op_class_0::SimdShaSigma3                0      0.00%     53.06% # Class of committed instruction
system.cpu.op_class_0::SimdPredAlu                  0      0.00%     53.06% # Class of committed instruction
system.cpu.op_class_0::MemRead                2082677      1.13%     54.20% # Class of committed instruction
system.cpu.op_class_0::MemWrite              84380913     45.80%    100.00% # Class of committed instruction
system.cpu.op_class_0::FloatMemRead                 0      0.00%    100.00% # Class of committed instruction
system.cpu.op_class_0::FloatMemWrite                0      0.00%    100.00% # Class of committed instruction
system.cpu.op_class_0::IprAccess                    0      0.00%    100.00% # Class of committed instruction
system.cpu.op_class_0::InstPrefetch                 0      0.00%    100.00% # Class of committed instruction
system.cpu.op_class_0::total                184218810                       # Class of committed instruction
system.cpu.tickCycles                       219051975                       # Number of cycles that the object actually ticked
system.cpu.workload.numSyscalls                    19                       # Number of system calls
system.membus.snoop_filter.hit_multi_requests            0                       # Number of requests hitting in the snoop filter with multiple (>1) holders of the requested data.
system.membus.snoop_filter.hit_multi_snoops            0                       # Number of snoops hitting in the snoop filter with multiple (>1) holders of the requested data.
system.membus.snoop_filter.hit_single_requests      2615564                       # Number of requests hitting in the snoop filter with a single holder of the requested data.
system.membus.snoop_filter.hit_single_snoops            0                       # Number of snoops hitting in the snoop filter with a single holder of the requested data.
system.membus.snoop_filter.tot_requests       5247740                       # Total number of requests made to the snoop filter.
system.membus.snoop_filter.tot_snoops               0                       # Total number of snoops made to the snoop filter.
system.tol2bus.snoop_filter.hit_multi_requests           60                       # Number of requests hitting in the snoop filter with multiple (>1) holders of the requested data.
system.tol2bus.snoop_filter.hit_multi_snoops            0                       # Number of snoops hitting in the snoop filter with multiple (>1) holders of the requested data.
system.tol2bus.snoop_filter.hit_single_requests      2631573                       # Number of requests hitting in the snoop filter with a single holder of the requested data.
system.tol2bus.snoop_filter.hit_single_snoops          328                       # Number of snoops hitting in the snoop filter with a single holder of the requested data.
system.tol2bus.snoop_filter.tot_requests      5263899                       # Total number of requests made to the snoop filter.
system.tol2bus.snoop_filter.tot_snoops            328                       # Total number of snoops made to the snoop filter.
system.clk_domain.clock                          1000                       # Clock period in ticks
system.cpu.branchPred.lookups                10658246                       # Number of BP lookups
system.cpu.branchPred.condPredicted          10650011                       # Number of conditional branches predicted
system.cpu.branchPred.condIncorrect              1451                       # Number of conditional branches incorrect
system.cpu.branchPred.BTBLookups             10650207                       # Number of BTB lookups
system.cpu.branchPred.BTBHits                10648839                       # Number of BTB hits
system.cpu.branchPred.BTBHitPct             99.987155                       # BTB Hit Percentage
system.cpu.branchPred.RASUsed                    2717                       # Number of times the RAS was used to get a target.
system.cpu.branchPred.RASIncorrect                  1                       # Number of incorrect RAS predictions.
system.cpu.branchPred.indirectLookups             195                       # Number of indirect predictor lookups.
system.cpu.branchPred.indirectHits                 18                       # Number of indirect target hits.
system.cpu.branchPred.indirectMisses              177                       # Number of indirect misses.
system.cpu.branchPred.indirectMispredicted          101                       # Number of mispredicted indirect branches.
system.cpu.dcache.demand_hits::.cpu.data     81118633                       # number of demand (read+write) hits
system.cpu.dcache.demand_hits::total         81118633                       # number of demand (read+write) hits
system.cpu.dcache.overall_hits::.cpu.data     81118679                       # number of overall hits
system.cpu.dcache.overall_hits::total        81118679                       # number of overall hits
system.cpu.dcache.demand_misses::.cpu.data      5262100                       # number of demand (read+write) misses
system.cpu.dcache.demand_misses::total        5262100                       # number of demand (read+write) misses
system.cpu.dcache.overall_misses::.cpu.data      5262125                       # number of overall misses
system.cpu.dcache.overall_misses::total       5262125                       # number of overall misses
system.cpu.dcache.demand_miss_latency::.cpu.data 634682638000                       # number of demand (read+write) miss cycles
system.cpu.dcache.demand_miss_latency::total 634682638000                       # number of demand (read+write) miss cycles
system.cpu.dcache.overall_miss_latency::.cpu.data 634682638000                       # number of overall miss cycles
system.cpu.dcache.overall_miss_latency::total 634682638000                       # number of overall miss cycles
system.cpu.dcache.demand_accesses::.cpu.data     86380733                       # number of demand (read+write) accesses
system.cpu.dcache.demand_accesses::total     86380733                       # number of demand (read+write) accesses
system.cpu.dcache.overall_accesses::.cpu.data     86380804                       # number of overall (read+write) accesses
system.cpu.dcache.overall_accesses::total     86380804                       # number of overall (read+write) accesses
system.cpu.dcache.demand_miss_rate::.cpu.data     0.060918                       # miss rate for demand accesses
system.cpu.dcache.demand_miss_rate::total     0.060918                       # miss rate for demand accesses
system.cpu.dcache.overall_miss_rate::.cpu.data     0.060918                       # miss rate for overall accesses
system.cpu.dcache.overall_miss_rate::total     0.060918                       # miss rate for overall accesses
system.cpu.dcache.demand_avg_miss_latency::.cpu.data 120613.944623                       # average overall miss latency
system.cpu.dcache.demand_avg_miss_latency::total 120613.944623                       # average overall miss latency
system.cpu.dcache.overall_avg_miss_latency::.cpu.data 120613.371594                       # average overall miss latency
system.cpu.dcache.overall_avg_miss_latency::total 120613.371594                       # average overall miss latency
system.cpu.dcache.blocked_cycles::no_mshrs            0                       # number of cycles access was blocked
system.cpu.dcache.blocked_cycles::no_targets            0                       # number of cycles access was blocked
system.cpu.dcache.blocked::no_mshrs                 0                       # number of cycles access was blocked
system.cpu.dcache.blocked::no_targets               0                       # number of cycles access was blocked
system.cpu.dcache.avg_blocked_cycles::no_mshrs          nan                       # average number of cycles each access was blocked
system.cpu.dcache.avg_blocked_cycles::no_targets          nan                       # average number of cycles each access was blocked
system.cpu.dcache.writebacks::.writebacks      2631138                       # number of writebacks
system.cpu.dcache.writebacks::total           2631138                       # number of writebacks
system.cpu.dcache.demand_mshr_hits::.cpu.data      2630250                       # number of demand (read+write) MSHR hits
system.cpu.dcache.demand_mshr_hits::total      2630250                       # number of demand (read+write) MSHR hits
system.cpu.dcache.overall_mshr_hits::.cpu.data      2630250                       # number of overall MSHR hits
system.cpu.dcache.overall_mshr_hits::total      2630250                       # number of overall MSHR hits
system.cpu.dcache.demand_mshr_misses::.cpu.data      2631850                       # number of demand (read+write) MSHR misses
system.cpu.dcache.demand_mshr_misses::total      2631850                       # number of demand (read+write) MSHR misses
system.cpu.dcache.overall_mshr_misses::.cpu.data      2631867                       # number of overall MSHR misses
system.cpu.dcache.overall_mshr_misses::total      2631867                       # number of overall MSHR misses
system.cpu.dcache.demand_mshr_miss_latency::.cpu.data 308230417000                       # number of demand (read+write) MSHR miss cycles
system.cpu.dcache.demand_mshr_miss_latency::total 308230417000                       # number of demand (read+write) MSHR miss cycles
system.cpu.dcache.overall_mshr_miss_latency::.cpu.data 308232191000                       # number of overall MSHR miss cycles
system.cpu.dcache.overall_mshr_miss_latency::total 308232191000                       # number of overall MSHR miss cycles
system.cpu.dcache.demand_mshr_miss_rate::.cpu.data     0.030468                       # mshr miss rate for demand accesses
system.cpu.dcache.demand_mshr_miss_rate::total     0.030468                       # mshr miss rate for demand accesses
system.cpu.dcache.overall_mshr_miss_rate::.cpu.data     0.030468                       # mshr miss rate for overall accesses
system.cpu.dcache.overall_mshr_miss_rate::total     0.030468                       # mshr miss rate for overall accesses
system.cpu.dcache.demand_avg_mshr_miss_latency::.cpu.data 117115.495564                       # average overall mshr miss latency
system.cpu.dcache.demand_avg_mshr_miss_latency::total 117115.495564                       # average overall mshr miss latency
system.cpu.dcache.overall_avg_mshr_miss_latency::.cpu.data 117115.413127                       # average overall mshr miss latency
system.cpu.dcache.overall_avg_mshr_miss_latency::total 117115.413127                       # average overall mshr miss latency
system.cpu.dcache.replacements                2631354                       # number of replacements
system.cpu.dcache.ReadReq_hits::.cpu.data      2043878                       # number of ReadReq hits
system.cpu.dcache.ReadReq_hits::total         2043878                       # number of ReadReq hits
system.cpu.dcache.ReadReq_misses::.cpu.data          254                       # number of ReadReq misses
system.cpu.dcache.ReadReq_misses::total           254                       # number of ReadReq misses
system.cpu.dcache.ReadReq_miss_latency::.cpu.data     26502000                       # number of ReadReq miss cycles
system.cpu.dcache.ReadReq_miss_latency::total     26502000                       # number of ReadReq miss cycles
system.cpu.dcache.ReadReq_accesses::.cpu.data      2044132                       # number of ReadReq accesses(hits+misses)
system.cpu.dcache.ReadReq_accesses::total      2044132                       # number of ReadReq accesses(hits+misses)
system.cpu.dcache.ReadReq_miss_rate::.cpu.data     0.000124                       # miss rate for ReadReq accesses
system.cpu.dcache.ReadReq_miss_rate::total     0.000124                       # miss rate for ReadReq accesses
system.cpu.dcache.ReadReq_avg_miss_latency::.cpu.data 104338.582677                       # average ReadReq miss latency
system.cpu.dcache.ReadReq_avg_miss_latency::total 104338.582677                       # average ReadReq miss latency
system.cpu.dcache.ReadReq_mshr_hits::.cpu.data           22                       # number of ReadReq MSHR hits
system.cpu.dcache.ReadReq_mshr_hits::total           22                       # number of ReadReq MSHR hits
system.cpu.dcache.ReadReq_mshr_misses::.cpu.data          232                       # number of ReadReq MSHR misses
system.cpu.dcache.ReadReq_mshr_misses::total          232                       # number of ReadReq MSHR misses
system.cpu.dcache.ReadReq_mshr_miss_latency::.cpu.data     24023000                       # number of ReadReq MSHR miss cycles
system.cpu.dcache.ReadReq_mshr_miss_latency::total     24023000                       # number of ReadReq MSHR miss cycles
system.cpu.dcache.ReadReq_mshr_miss_rate::.cpu.data     0.000113                       # mshr miss rate for ReadReq accesses
system.cpu.dcache.ReadReq_mshr_miss_rate::total     0.000113                       # mshr miss rate for ReadReq accesses
system.cpu.dcache.ReadReq_avg_mshr_miss_latency::.cpu.data 103547.413793                       # average ReadReq mshr miss latency
system.cpu.dcache.ReadReq_avg_mshr_miss_latency::total 103547.413793                       # average ReadReq mshr miss latency
system.cpu.dcache.WriteReq_hits::.cpu.data     79074755                       # number of WriteReq hits
system.cpu.dcache.WriteReq_hits::total       79074755                       # number of WriteReq hits
system.cpu.dcache.WriteReq_misses::.cpu.data      5261846                       # number of WriteReq misses
system.cpu.dcache.WriteReq_misses::total      5261846                       # number of WriteReq misses
system.cpu.dcache.WriteReq_miss_latency::.cpu.data 634656136000                       # number of WriteReq miss cycles
system.cpu.dcache.WriteReq_miss_latency::total 634656136000                       # number of WriteReq miss cycles
system.cpu.dcache.WriteReq_accesses::.cpu.data     84336601                       # number of WriteReq accesses(hits+misses)
system.cpu.dcache.WriteReq_accesses::total     84336601                       # number of WriteReq accesses(hits+misses)
system.cpu.dcache.WriteReq_miss_rate::.cpu.data     0.062391                       # miss rate for WriteReq accesses
system.cpu.dcache.WriteReq_miss_rate::total     0.062391                       # miss rate for WriteReq accesses
system.cpu.dcache.WriteReq_avg_miss_latency::.cpu.data 120614.730268                       # average WriteReq miss latency
system.cpu.dcache.WriteReq_avg_miss_latency::total 120614.730268                       # average WriteReq miss latency
system.cpu.dcache.WriteReq_mshr_hits::.cpu.data      2630228                       # number of WriteReq MSHR hits
system.cpu.dcache.WriteReq_mshr_hits::total      2630228                       # number of WriteReq MSHR hits
system.cpu.dcache.WriteReq_mshr_misses::.cpu.data      2631618                       # number of WriteReq MSHR misses
system.cpu.dcache.WriteReq_mshr_misses::total      2631618                       # number of WriteReq MSHR misses
system.cpu.dcache.WriteReq_mshr_miss_latency::.cpu.data 308206394000                       # number of WriteReq MSHR miss cycles
system.cpu.dcache.WriteReq_mshr_miss_latency::total 308206394000                       # number of WriteReq MSHR miss cycles
system.cpu.dcache.WriteReq_mshr_miss_rate::.cpu.data     0.031204                       # mshr miss rate for WriteReq accesses
system.cpu.dcache.WriteReq_mshr_miss_rate::total     0.031204                       # mshr miss rate for WriteReq accesses
system.cpu.dcache.WriteReq_avg_mshr_miss_latency::.cpu.data 117116.691708                       # average WriteReq mshr miss latency
system.cpu.dcache.WriteReq_avg_mshr_miss_latency::total 117116.691708                       # average WriteReq mshr miss latency
system.cpu.dcache.SoftPFReq_hits::.cpu.data           46                       # number of SoftPFReq hits
system.cpu.dcache.SoftPFReq_hits::total            46                       # number of SoftPFReq hits
system.cpu.dcache.SoftPFReq_misses::.cpu.data           25                       # number of SoftPFReq misses
system.cpu.dcache.SoftPFReq_misses::total           25                       # number of SoftPFReq misses
system.cpu.dcache.SoftPFReq_accesses::.cpu.data           71                       # number of SoftPFReq accesses(hits+misses)
system.cpu.dcache.SoftPFReq_accesses::total           71                       # number of SoftPFReq accesses(hits+misses)
system.cpu.dcache.SoftPFReq_miss_rate::.cpu.data     0.352113                       # miss rate for SoftPFReq accesses
system.cpu.dcache.SoftPFReq_miss_rate::total     0.352113                       # miss rate for SoftPFReq accesses
system.cpu.dcache.SoftPFReq_mshr_misses::.cpu.data           17                       # number of SoftPFReq MSHR misses
system.cpu.dcache.SoftPFReq_mshr_misses::total           17                       # number of SoftPFReq MSHR misses
system.cpu.dcache.SoftPFReq_mshr_miss_latency::.cpu.data      1774000                       # number of SoftPFReq MSHR miss cycles
system.cpu.dcache.SoftPFReq_mshr_miss_latency::total      1774000                       # number of SoftPFReq MSHR miss cycles
system.cpu.dcache.SoftPFReq_mshr_miss_rate::.cpu.data     0.239437                       # mshr miss rate for SoftPFReq accesses
system.cpu.dcache.SoftPFReq_mshr_miss_rate::total     0.239437                       # mshr miss rate for SoftPFReq accesses
system.cpu.dcache.SoftPFReq_avg_mshr_miss_latency::.cpu.data 104352.941176                       # average SoftPFReq mshr miss latency
system.cpu.dcache.SoftPFReq_avg_mshr_miss_latency::total 104352.941176                       # average SoftPFReq mshr miss latency
system.cpu.dcache.LoadLockedReq_hits::.cpu.data           34                       # number of LoadLockedReq hits
system.cpu.dcache.LoadLockedReq_hits::total           34                       # number of LoadLockedReq hits
system.cpu.dcache.LoadLockedReq_accesses::.cpu.data           34                       # number of LoadLockedReq accesses(hits+misses)
system.cpu.dcache.LoadLockedReq_accesses::total           34                       # number of LoadLockedReq accesses(hits+misses)
system.cpu.dcache.StoreCondReq_hits::.cpu.data           34                       # number of StoreCondReq hits
system.cpu.dcache.StoreCondReq_hits::total           34                       # number of StoreCondReq hits
system.cpu.dcache.StoreCondReq_accesses::.cpu.data           34                       # number of StoreCondReq accesses(hits+misses)
system.cpu.dcache.StoreCondReq_accesses::total           34                       # number of StoreCondReq accesses(hits+misses)
system.cpu.dcache.power_state.pwrStateResidencyTicks::UNDEFINED 498482222000                       # Cumulative time (in ticks) in various power states
system.cpu.dcache.tags.tagsinuse           511.746600                       # Cycle average of tags in use
system.cpu.dcache.tags.total_refs            83750613                       # Total number of references to valid blocks.
system.cpu.dcache.tags.sampled_refs           2631866                       # Sample count of references to valid blocks.
system.cpu.dcache.tags.avg_refs             31.821762                       # Average number of references to valid blocks.
system.cpu.dcache.tags.warmup_cycle            233000                       # Cycle when the warmup percentage was hit.
system.cpu.dcache.tags.occ_blocks::.cpu.data   511.746600                       # Average occupied blocks per requestor
system.cpu.dcache.tags.occ_percent::.cpu.data     0.999505                       # Average percentage of cache occupancy
system.cpu.dcache.tags.occ_percent::total     0.999505                       # Average percentage of cache occupancy
system.cpu.dcache.tags.occ_task_id_blocks::1024          512                       # Occupied blocks per task id
system.cpu.dcache.tags.age_task_id_blocks_1024::0           54                       # Occupied blocks per task id
system.cpu.dcache.tags.age_task_id_blocks_1024::1          458                       # Occupied blocks per task id
system.cpu.dcache.tags.occ_task_id_percent::1024            1                       # Percentage of cache occupancy per task id
system.cpu.dcache.tags.tag_accesses         175393610                       # Number of tag accesses
system.cpu.dcache.tags.data_accesses        175393610                       # Number of data accesses
system.cpu.dcache.tags.power_state.pwrStateResidencyTicks::UNDEFINED 498482222000                       # Cumulative time (in ticks) in various power states
system.cpu.dtb.instHits                             0                       # ITB inst hits
system.cpu.dtb.instMisses                           0                       # ITB inst misses
system.cpu.dtb.readHits                             0                       # DTB read hits
system.cpu.dtb.readMisses                           0                       # DTB read misses
system.cpu.dtb.writeHits                            0                       # DTB write hits
system.cpu.dtb.writeMisses                          0                       # DTB write misses
system.cpu.dtb.inserts                              0                       # Number of times an entry is inserted into the TLB
system.cpu.dtb.flushTlb                             0                       # Number of times complete TLB was flushed
system.cpu.dtb.flushTlbMva                          0                       # Number of times TLB was flushed by MVA
system.cpu.dtb.flushTlbMvaAsid                      0                       # Number of times TLB was flushed by MVA & ASID
system.cpu.dtb.flushTlbAsid                         0                       # Number of times TLB was flushed by ASID
system.cpu.dtb.flushedEntries                       0                       # Number of entries that have been flushed from TLB
system.cpu.dtb.alignFaults                          0                       # Number of TLB faults due to alignment restrictions
system.cpu.dtb.prefetchFaults                       0                       # Number of TLB faults due to prefetch
system.cpu.dtb.domainFaults                         0                       # Number of TLB faults due to domain restrictions
system.cpu.dtb.permsFaults                          0                       # Number of TLB faults due to permissions restrictions
system.cpu.dtb.readAccesses                         0                       # DTB read accesses
system.cpu.dtb.writeAccesses                        0                       # DTB write accesses
system.cpu.dtb.instAccesses                         0                       # ITB inst accesses
system.cpu.dtb.hits                                 0                       # Total TLB (inst and data) hits
system.cpu.dtb.misses                               0                       # Total TLB (inst and data) misses
system.cpu.dtb.accesses                             0                       # Total TLB (inst and data) accesses
system.cpu.dtb.stage2_mmu.stage2_tlb.instHits            0                       # ITB inst hits
system.cpu.dtb.stage2_mmu.stage2_tlb.instMisses            0                       # ITB inst misses
system.cpu.dtb.stage2_mmu.stage2_tlb.readHits            0                       # DTB read hits
system.cpu.dtb.stage2_mmu.stage2_tlb.readMisses            0                       # DTB read misses
system.cpu.dtb.stage2_mmu.stage2_tlb.writeHits            0                       # DTB write hits
system.cpu.dtb.stage2_mmu.stage2_tlb.writeMisses            0                       # DTB write misses
system.cpu.dtb.stage2_mmu.stage2_tlb.inserts            0                       # Number of times an entry is inserted into the TLB
system.cpu.dtb.stage2_mmu.stage2_tlb.flushTlb            0                       # Number of times complete TLB was flushed
system.cpu.dtb.stage2_mmu.stage2_tlb.flushTlbMva            0                       # Number of times TLB was flushed by MVA
system.cpu.dtb.stage2_mmu.stage2_tlb.flushTlbMvaAsid            0                       # Number of times TLB was flushed by MVA & ASID
system.cpu.dtb.stage2_mmu.stage2_tlb.flushTlbAsid            0                       # Number of times TLB was flushed by ASID
system.cpu.dtb.stage2_mmu.stage2_tlb.flushedEntries            0                       # Number of entries that have been flushed from TLB
system.cpu.dtb.stage2_mmu.stage2_tlb.alignFaults            0                       # Number of TLB faults due to alignment restrictions
system.cpu.dtb.stage2_mmu.stage2_tlb.prefetchFaults            0                       # Number of TLB faults due to prefetch
system.cpu.dtb.stage2_mmu.stage2_tlb.domainFaults            0                       # Number of TLB faults due to domain restrictions
system.cpu.dtb.stage2_mmu.stage2_tlb.permsFaults            0                       # Number of TLB faults due to permissions restrictions
system.cpu.dtb.stage2_mmu.stage2_tlb.readAccesses            0                       # DTB read accesses
system.cpu.dtb.stage2_mmu.stage2_tlb.writeAccesses            0                       # DTB write accesses
system.cpu.dtb.stage2_mmu.stage2_tlb.instAccesses            0                       # ITB inst accesses
system.cpu.dtb.stage2_mmu.stage2_tlb.hits            0                       # Total TLB (inst and data) hits
system.cpu.dtb.stage2_mmu.stage2_tlb.misses            0                       # Total TLB (inst and data) misses
system.cpu.dtb.stage2_mmu.stage2_tlb.accesses            0                       # Total TLB (inst and data) accesses
system.cpu.dtb.stage2_mmu.stage2_tlb.walker.walks            0                       # Table walker walks requested
system.cpu.dtb.stage2_mmu.stage2_tlb.walker.requestOrigin_Requested::Data            0                       # Table walker requests started/completed, data/inst
system.cpu.dtb.stage2_mmu.stage2_tlb.walker.requestOrigin_Requested::Inst            0                       # Table walker requests started/completed, data/inst
system.cpu.dtb.stage2_mmu.stage2_tlb.walker.requestOrigin_Requested::total            0                       # Table walker requests started/completed, data/inst
system.cpu.dtb.stage2_mmu.stage2_tlb.walker.requestOrigin_Completed::Data            0                       # Table walker requests started/completed, data/inst
system.cpu.dtb.stage2_mmu.stage2_tlb.walker.requestOrigin_Completed::Inst            0                       # Table walker requests started/completed, data/inst
system.cpu.dtb.stage2_mmu.stage2_tlb.walker.requestOrigin_Completed::total            0                       # Table walker requests started/completed, data/inst
system.cpu.dtb.stage2_mmu.stage2_tlb.walker.requestOrigin::total            0                       # Table walker requests started/completed, data/inst
system.cpu.dtb.stage2_mmu.stage2_tlb.walker.power_state.pwrStateResidencyTicks::UNDEFINED 498482222000                       # Cumulative time (in ticks) in various power states
system.cpu.dtb.walker.walks                         0                       # Table walker walks requested
system.cpu.dtb.walker.requestOrigin_Requested::Data            0                       # Table walker requests started/completed, data/inst
system.cpu.dtb.walker.requestOrigin_Requested::Inst            0                       # Table walker requests started/completed, data/inst
system.cpu.dtb.walker.requestOrigin_Requested::total            0                       # Table walker requests started/completed, data/inst
system.cpu.dtb.walker.requestOrigin_Completed::Data            0                       # Table walker requests started/completed, data/inst
system.cpu.dtb.walker.requestOrigin_Completed::Inst            0                       # Table walker requests started/completed, data/inst
system.cpu.dtb.walker.requestOrigin_Completed::total            0                       # Table walker requests started/completed, data/inst
system.cpu.dtb.walker.requestOrigin::total            0                       # Table walker requests started/completed, data/inst
system.cpu.dtb.walker.power_state.pwrStateResidencyTicks::UNDEFINED 498482222000                       # Cumulative time (in ticks) in various power states
system.cpu.fetch2.intInstructions            45071083                       # Number of integer instructions successfully decoded
system.cpu.fetch2.fpInstructions                    0                       # Number of floating point instructions successfully decoded
system.cpu.fetch2.vecInstructions                   0                       # Number of SIMD instructions successfully decoded
system.cpu.fetch2.loadInstructions            2086437                       # Number of memory load instructions successfully decoded
system.cpu.fetch2.storeInstructions            169155                       # Number of memory store instructions successfully decoded
system.cpu.fetch2.amoInstructions                   0                       # Number of memory atomic instructions successfully decoded
system.cpu.icache.demand_hits::.cpu.inst     32052862                       # number of demand (read+write) hits
system.cpu.icache.demand_hits::total         32052862                       # number of demand (read+write) hits
system.cpu.icache.overall_hits::.cpu.inst     32052862                       # number of overall hits
system.cpu.icache.overall_hits::total        32052862                       # number of overall hits
system.cpu.icache.demand_misses::.cpu.inst          459                       # number of demand (read+write) misses
system.cpu.icache.demand_misses::total            459                       # number of demand (read+write) misses
system.cpu.icache.overall_misses::.cpu.inst          459                       # number of overall misses
system.cpu.icache.overall_misses::total           459                       # number of overall misses
system.cpu.icache.demand_miss_latency::.cpu.inst     45852000                       # number of demand (read+write) miss cycles
system.cpu.icache.demand_miss_latency::total     45852000                       # number of demand (read+write) miss cycles
system.cpu.icache.overall_miss_latency::.cpu.inst     45852000                       # number of overall miss cycles
system.cpu.icache.overall_miss_latency::total     45852000                       # number of overall miss cycles
system.cpu.icache.demand_accesses::.cpu.inst     32053321                       # number of demand (read+write) accesses
system.cpu.icache.demand_accesses::total     32053321                       # number of demand (read+write) accesses
system.cpu.icache.overall_accesses::.cpu.inst     32053321                       # number of overall (read+write) accesses
system.cpu.icache.overall_accesses::total     32053321                       # number of overall (read+write) accesses
system.cpu.icache.demand_miss_rate::.cpu.inst     0.000014                       # miss rate for demand accesses
system.cpu.icache.demand_miss_rate::total     0.000014                       # miss rate for demand accesses
system.cpu.icache.overall_miss_rate::.cpu.inst     0.000014                       # miss rate for overall accesses
system.cpu.icache.overall_miss_rate::total     0.000014                       # miss rate for overall accesses
system.cpu.icache.demand_avg_miss_latency::.cpu.inst 99895.424837                       # average overall miss latency
system.cpu.icache.demand_avg_miss_latency::total 99895.424837                       # average overall miss latency
system.cpu.icache.overall_avg_miss_latency::.cpu.inst 99895.424837                       # average overall miss latency
system.cpu.icache.overall_avg_miss_latency::total 99895.424837                       # average overall miss latency
system.cpu.icache.blocked_cycles::no_mshrs            0                       # number of cycles access was blocked
system.cpu.icache.blocked_cycles::no_targets            0                       # number of cycles access was blocked
system.cpu.icache.blocked::no_mshrs                 0                       # number of cycles access was blocked
system.cpu.icache.blocked::no_targets               0                       # number of cycles access was blocked
system.cpu.icache.avg_blocked_cycles::no_mshrs          nan                       # average number of cycles each access was blocked
system.cpu.icache.avg_blocked_cycles::no_targets          nan                       # average number of cycles each access was blocked
system.cpu.icache.writebacks::.writebacks          219                       # number of writebacks
system.cpu.icache.writebacks::total               219                       # number of writebacks
system.cpu.icache.demand_mshr_misses::.cpu.inst          459                       # number of demand (read+write) MSHR misses
system.cpu.icache.demand_mshr_misses::total          459                       # number of demand (read+write) MSHR misses
system.cpu.icache.overall_mshr_misses::.cpu.inst          459                       # number of overall MSHR misses
system.cpu.icache.overall_mshr_misses::total          459                       # number of overall MSHR misses
system.cpu.icache.demand_mshr_miss_latency::.cpu.inst     44934000                       # number of demand (read+write) MSHR miss cycles
system.cpu.icache.demand_mshr_miss_latency::total     44934000                       # number of demand (read+write) MSHR miss cycles
system.cpu.icache.overall_mshr_miss_latency::.cpu.inst     44934000                       # number of overall MSHR miss cycles
system.cpu.icache.overall_mshr_miss_latency::total     44934000                       # number of overall MSHR miss cycles
system.cpu.icache.demand_mshr_miss_rate::.cpu.inst     0.000014                       # mshr miss rate for demand accesses
system.cpu.icache.demand_mshr_miss_rate::total     0.000014                       # mshr miss rate for demand accesses
system.cpu.icache.overall_mshr_miss_rate::.cpu.inst     0.000014                       # mshr miss rate for overall accesses
system.cpu.icache.overall_mshr_miss_rate::total     0.000014                       # mshr miss rate for overall accesses
system.cpu.icache.demand_avg_mshr_miss_latency::.cpu.inst 97895.424837                       # average overall mshr miss latency
system.cpu.icache.demand_avg_mshr_miss_latency::total 97895.424837                       # average overall mshr miss latency
system.cpu.icache.overall_avg_mshr_miss_latency::.cpu.inst 97895.424837                       # average overall mshr miss latency
system.cpu.icache.overall_avg_mshr_miss_latency::total 97895.424837                       # average overall mshr miss latency
system.cpu.icache.replacements                    219                       # number of replacements
system.cpu.icache.ReadReq_hits::.cpu.inst     32052862                       # number of ReadReq hits
system.cpu.icache.ReadReq_hits::total        32052862                       # number of ReadReq hits
system.cpu.icache.ReadReq_misses::.cpu.inst          459                       # number of ReadReq misses
system.cpu.icache.ReadReq_misses::total           459                       # number of ReadReq misses
system.cpu.icache.ReadReq_miss_latency::.cpu.inst     45852000                       # number of ReadReq miss cycles
system.cpu.icache.ReadReq_miss_latency::total     45852000                       # number of ReadReq miss cycles
system.cpu.icache.ReadReq_accesses::.cpu.inst     32053321                       # number of ReadReq accesses(hits+misses)
system.cpu.icache.ReadReq_accesses::total     32053321                       # number of ReadReq accesses(hits+misses)
system.cpu.icache.ReadReq_miss_rate::.cpu.inst     0.000014                       # miss rate for ReadReq accesses
system.cpu.icache.ReadReq_miss_rate::total     0.000014                       # miss rate for ReadReq accesses
system.cpu.icache.ReadReq_avg_miss_latency::.cpu.inst 99895.424837                       # average ReadReq miss latency
system.cpu.icache.ReadReq_avg_miss_latency::total 99895.424837                       # average ReadReq miss latency
system.cpu.icache.ReadReq_mshr_misses::.cpu.inst          459                       # number of ReadReq MSHR misses
system.cpu.icache.ReadReq_mshr_misses::total          459                       # number of ReadReq MSHR misses
system.cpu.icache.ReadReq_mshr_miss_latency::.cpu.inst     44934000                       # number of ReadReq MSHR miss cycles
system.cpu.icache.ReadReq_mshr_miss_latency::total     44934000                       # number of ReadReq MSHR miss cycles
system.cpu.icache.ReadReq_mshr_miss_rate::.cpu.inst     0.000014                       # mshr miss rate for ReadReq accesses
system.cpu.icache.ReadReq_mshr_miss_rate::total     0.000014                       # mshr miss rate for ReadReq accesses
system.cpu.icache.ReadReq_avg_mshr_miss_latency::.cpu.inst 97895.424837                       # average ReadReq mshr miss latency
system.cpu.icache.ReadReq_avg_mshr_miss_latency::total 97895.424837                       # average ReadReq mshr miss latency
system.cpu.icache.power_state.pwrStateResidencyTicks::UNDEFINED 498482222000                       # Cumulative time (in ticks) in various power states
system.cpu.icache.tags.tagsinuse           224.713687                       # Cycle average of tags in use
system.cpu.icache.tags.total_refs            32053321                       # Total number of references to valid blocks.
system.cpu.icache.tags.sampled_refs               459                       # Sample count of references to valid blocks.
system.cpu.icache.tags.avg_refs          69832.943355                       # Average number of references to valid blocks.
system.cpu.icache.tags.warmup_cycle            113000                       # Cycle when the warmup percentage was hit.
system.cpu.icache.tags.occ_blocks::.cpu.inst   224.713687                       # Average occupied blocks per requestor
system.cpu.icache.tags.occ_percent::.cpu.inst     0.877788                       # Average percentage of cache occupancy
system.cpu.icache.tags.occ_percent::total     0.877788                       # Average percentage of cache occupancy
system.cpu.icache.tags.occ_task_id_blocks::1024          240                       # Occupied blocks per task id
system.cpu.icache.tags.age_task_id_blocks_1024::4          240                       # Occupied blocks per task id
system.cpu.icache.tags.occ_task_id_percent::1024     0.937500                       # Percentage of cache occupancy per task id
system.cpu.icache.tags.tag_accesses          64107101                       # Number of tag accesses
system.cpu.icache.tags.data_accesses         64107101                       # Number of data accesses
system.cpu.icache.tags.power_state.pwrStateResidencyTicks::UNDEFINED 498482222000                       # Cumulative time (in ticks) in various power states
system.cpu.itb.instHits                             0                       # ITB inst hits
system.cpu.itb.instMisses                           0                       # ITB inst misses
system.cpu.itb.readHits                             0                       # DTB read hits
system.cpu.itb.readMisses                           0                       # DTB read misses
system.cpu.itb.writeHits                            0                       # DTB write hits
system.cpu.itb.writeMisses                          0                       # DTB write misses
system.cpu.itb.inserts                              0                       # Number of times an entry is inserted into the TLB
system.cpu.itb.flushTlb                             0                       # Number of times complete TLB was flushed
system.cpu.itb.flushTlbMva                          0                       # Number of times TLB was flushed by MVA
system.cpu.itb.flushTlbMvaAsid                      0                       # Number of times TLB was flushed by MVA & ASID
system.cpu.itb.flushTlbAsid                         0                       # Number of times TLB was flushed by ASID
system.cpu.itb.flushedEntries                       0                       # Number of entries that have been flushed from TLB
system.cpu.itb.alignFaults                          0                       # Number of TLB faults due to alignment restrictions
system.cpu.itb.prefetchFaults                       0                       # Number of TLB faults due to prefetch
system.cpu.itb.domainFaults                         0                       # Number of TLB faults due to domain restrictions
system.cpu.itb.permsFaults                          0                       # Number of TLB faults due to permissions restrictions
system.cpu.itb.readAccesses                         0                       # DTB read accesses
system.cpu.itb.writeAccesses                        0                       # DTB write accesses
system.cpu.itb.instAccesses                         0                       # ITB inst accesses
system.cpu.itb.hits                                 0                       # Total TLB (inst and data) hits
system.cpu.itb.misses                               0                       # Total TLB (inst and data) misses
system.cpu.itb.accesses                             0                       # Total TLB (inst and data) accesses
system.cpu.itb.stage2_mmu.stage2_tlb.instHits            0                       # ITB inst hits
system.cpu.itb.stage2_mmu.stage2_tlb.instMisses            0                       # ITB inst misses
system.cpu.itb.stage2_mmu.stage2_tlb.readHits            0                       # DTB read hits
system.cpu.itb.stage2_mmu.stage2_tlb.readMisses            0                       # DTB read misses
system.cpu.itb.stage2_mmu.stage2_tlb.writeHits            0                       # DTB write hits
system.cpu.itb.stage2_mmu.stage2_tlb.writeMisses            0                       # DTB write misses
system.cpu.itb.stage2_mmu.stage2_tlb.inserts            0                       # Number of times an entry is inserted into the TLB
system.cpu.itb.stage2_mmu.stage2_tlb.flushTlb            0                       # Number of times complete TLB was flushed
system.cpu.itb.stage2_mmu.stage2_tlb.flushTlbMva            0                       # Number of times TLB was flushed by MVA
system.cpu.itb.stage2_mmu.stage2_tlb.flushTlbMvaAsid            0                       # Number of times TLB was flushed by MVA & ASID
system.cpu.itb.stage2_mmu.stage2_tlb.flushTlbAsid            0                       # Number of times TLB was flushed by ASID
system.cpu.itb.stage2_mmu.stage2_tlb.flushedEntries            0                       # Number of entries that have been flushed from TLB
system.cpu.itb.stage2_mmu.stage2_tlb.alignFaults            0                       # Number of TLB faults due to alignment restrictions
system.cpu.itb.stage2_mmu.stage2_tlb.prefetchFaults            0                       # Number of TLB faults due to prefetch
system.cpu.itb.stage2_mmu.stage2_tlb.domainFaults            0                       # Number of TLB faults due to domain restrictions
system.cpu.itb.stage2_mmu.stage2_tlb.permsFaults            0                       # Number of TLB faults due to permissions restrictions
system.cpu.itb.stage2_mmu.stage2_tlb.readAccesses            0                       # DTB read accesses
system.cpu.itb.stage2_mmu.stage2_tlb.writeAccesses            0                       # DTB write accesses
system.cpu.itb.stage2_mmu.stage2_tlb.instAccesses            0                       # ITB inst accesses
system.cpu.itb.stage2_mmu.stage2_tlb.hits            0                       # Total TLB (inst and data) hits
system.cpu.itb.stage2_mmu.stage2_tlb.misses            0                       # Total TLB (inst and data) misses
system.cpu.itb.stage2_mmu.stage2_tlb.accesses            0                       # Total TLB (inst and data) accesses
system.cpu.itb.stage2_mmu.stage2_tlb.walker.walks            0                       # Table walker walks requested
system.cpu.itb.stage2_mmu.stage2_tlb.walker.requestOrigin_Requested::Data            0                       # Table walker requests started/completed, data/inst
system.cpu.itb.stage2_mmu.stage2_tlb.walker.requestOrigin_Requested::Inst            0                       # Table walker requests started/completed, data/inst
system.cpu.itb.stage2_mmu.stage2_tlb.walker.requestOrigin_Requested::total            0                       # Table walker requests started/completed, data/inst
system.cpu.itb.stage2_mmu.stage2_tlb.walker.requestOrigin_Completed::Data            0                       # Table walker requests started/completed, data/inst
system.cpu.itb.stage2_mmu.stage2_tlb.walker.requestOrigin_Completed::Inst            0                       # Table walker requests started/completed, data/inst
system.cpu.itb.stage2_mmu.stage2_tlb.walker.requestOrigin_Completed::total            0                       # Table walker requests started/completed, data/inst
system.cpu.itb.stage2_mmu.stage2_tlb.walker.requestOrigin::total            0                       # Table walker requests started/completed, data/inst
system.cpu.itb.stage2_mmu.stage2_tlb.walker.power_state.pwrStateResidencyTicks::UNDEFINED 498482222000                       # Cumulative time (in ticks) in various power states
system.cpu.itb.walker.walks                         0                       # Table walker walks requested
system.cpu.itb.walker.requestOrigin_Requested::Data            0                       # Table walker requests started/completed, data/inst
system.cpu.itb.walker.requestOrigin_Requested::Inst            0                       # Table walker requests started/completed, data/inst
system.cpu.itb.walker.requestOrigin_Requested::total            0                       # Table walker requests started/completed, data/inst
system.cpu.itb.walker.requestOrigin_Completed::Data            0                       # Table walker requests started/completed, data/inst
system.cpu.itb.walker.requestOrigin_Completed::Inst            0                       # Table walker requests started/completed, data/inst
system.cpu.itb.walker.requestOrigin_Completed::total            0                       # Table walker requests started/completed, data/inst
system.cpu.itb.walker.requestOrigin::total            0                       # Table walker requests started/completed, data/inst
system.cpu.itb.walker.power_state.pwrStateResidencyTicks::UNDEFINED 498482222000                       # Cumulative time (in ticks) in various power states
system.cpu.power_state.pwrStateResidencyTicks::ON 498482222000                       # Cumulative time (in ticks) in various power states
system.cpu.thread0.numInsts                 100000000                       # Number of Instructions committed
system.cpu.thread0.numOps                   184218810                       # Number of Ops committed
system.cpu.thread0.numMemRefs                       0                       # Number of Memory References
system.cpu_clk_domain.clock                      1000                       # Clock period in ticks
system.cpu_voltage_domain.voltage                   1                       # Voltage in Volts
system.l2.demand_hits::.cpu.inst                   72                       # number of demand (read+write) hits
system.l2.demand_hits::.cpu.data                   56                       # number of demand (read+write) hits
system.l2.demand_hits::total                      128                       # number of demand (read+write) hits
system.l2.overall_hits::.cpu.inst                  72                       # number of overall hits
system.l2.overall_hits::.cpu.data                  56                       # number of overall hits
system.l2.overall_hits::total                     128                       # number of overall hits
system.l2.demand_misses::.cpu.inst                387                       # number of demand (read+write) misses
system.l2.demand_misses::.cpu.data            2631811                       # number of demand (read+write) misses
system.l2.demand_misses::total                2632198                       # number of demand (read+write) misses
system.l2.overall_misses::.cpu.inst               387                       # number of overall misses
system.l2.overall_misses::.cpu.data           2631811                       # number of overall misses
system.l2.overall_misses::total               2632198                       # number of overall misses
system.l2.demand_miss_latency::.cpu.inst     41888000                       # number of demand (read+write) miss cycles
system.l2.demand_miss_latency::.cpu.data 300335277000                       # number of demand (read+write) miss cycles
system.l2.demand_miss_latency::total     300377165000                       # number of demand (read+write) miss cycles
system.l2.overall_miss_latency::.cpu.inst     41888000                       # number of overall miss cycles
system.l2.overall_miss_latency::.cpu.data 300335277000                       # number of overall miss cycles
system.l2.overall_miss_latency::total    300377165000                       # number of overall miss cycles
system.l2.demand_accesses::.cpu.inst              459                       # number of demand (read+write) accesses
system.l2.demand_accesses::.cpu.data          2631867                       # number of demand (read+write) accesses
system.l2.demand_accesses::total              2632326                       # number of demand (read+write) accesses
system.l2.overall_accesses::.cpu.inst             459                       # number of overall (read+write) accesses
system.l2.overall_accesses::.cpu.data         2631867                       # number of overall (read+write) accesses
system.l2.overall_accesses::total             2632326                       # number of overall (read+write) accesses
system.l2.demand_miss_rate::.cpu.inst        0.843137                       # miss rate for demand accesses
system.l2.demand_miss_rate::.cpu.data        0.999979                       # miss rate for demand accesses
system.l2.demand_miss_rate::total            0.999951                       # miss rate for demand accesses
system.l2.overall_miss_rate::.cpu.inst       0.843137                       # miss rate for overall accesses
system.l2.overall_miss_rate::.cpu.data       0.999979                       # miss rate for overall accesses
system.l2.overall_miss_rate::total           0.999951                       # miss rate for overall accesses
system.l2.demand_avg_miss_latency::.cpu.inst 108237.726098                       # average overall miss latency
system.l2.demand_avg_miss_latency::.cpu.data 114117.342393                       # average overall miss latency
system.l2.demand_avg_miss_latency::total 114116.477940                       # average overall miss latency
system.l2.overall_avg_miss_latency::.cpu.inst 108237.726098                       # average overall miss latency
system.l2.overall_avg_miss_latency::.cpu.data 114117.342393                       # average overall miss latency
system.l2.overall_avg_miss_latency::total 114116.477940                       # average overall miss latency
system.l2.blocked_cycles::no_mshrs                  0                       # number of cycles access was blocked
system.l2.blocked_cycles::no_targets                0                       # number of cycles access was blocked
system.l2.blocked::no_mshrs                         0                       # number of cycles access was blocked
system.l2.blocked::no_targets                       0                       # number of cycles access was blocked
system.l2.avg_blocked_cycles::no_mshrs            nan                       # average number of cycles each access was blocked
system.l2.avg_blocked_cycles::no_targets          nan                       # average number of cycles each access was blocked
system.l2.writebacks::.writebacks             2615243                       # number of writebacks
system.l2.writebacks::total                   2615243                       # number of writebacks
system.l2.demand_mshr_hits::.cpu.inst               2                       # number of demand (read+write) MSHR hits
system.l2.demand_mshr_hits::.cpu.data               7                       # number of demand (read+write) MSHR hits
system.l2.demand_mshr_hits::total                   9                       # number of demand (read+write) MSHR hits
system.l2.overall_mshr_hits::.cpu.inst              2                       # number of overall MSHR hits
system.l2.overall_mshr_hits::.cpu.data              7                       # number of overall MSHR hits
system.l2.overall_mshr_hits::total                  9                       # number of overall MSHR hits
system.l2.demand_mshr_misses::.cpu.inst           385                       # number of demand (read+write) MSHR misses
system.l2.demand_mshr_misses::.cpu.data       2631804                       # number of demand (read+write) MSHR misses
system.l2.demand_mshr_misses::total           2632189                       # number of demand (read+write) MSHR misses
system.l2.overall_mshr_misses::.cpu.inst          385                       # number of overall MSHR misses
system.l2.overall_mshr_misses::.cpu.data      2631804                       # number of overall MSHR misses
system.l2.overall_mshr_misses::total          2632189                       # number of overall MSHR misses
system.l2.demand_mshr_miss_latency::.cpu.inst     34064000                       # number of demand (read+write) MSHR miss cycles
system.l2.demand_mshr_miss_latency::.cpu.data 247698614000                       # number of demand (read+write) MSHR miss cycles
system.l2.demand_mshr_miss_latency::total 247732678000                       # number of demand (read+write) MSHR miss cycles
system.l2.overall_mshr_miss_latency::.cpu.inst     34064000                       # number of overall MSHR miss cycles
system.l2.overall_mshr_miss_latency::.cpu.data 247698614000                       # number of overall MSHR miss cycles
system.l2.overall_mshr_miss_latency::total 247732678000                       # number of overall MSHR miss cycles
system.l2.demand_mshr_miss_rate::.cpu.inst     0.838780                       # mshr miss rate for demand accesses
system.l2.demand_mshr_miss_rate::.cpu.data     0.999976                       # mshr miss rate for demand accesses
system.l2.demand_mshr_miss_rate::total       0.999948                       # mshr miss rate for demand accesses
system.l2.overall_mshr_miss_rate::.cpu.inst     0.838780                       # mshr miss rate for overall accesses
system.l2.overall_mshr_miss_rate::.cpu.data     0.999976                       # mshr miss rate for overall accesses
system.l2.overall_mshr_miss_rate::total      0.999948                       # mshr miss rate for overall accesses
system.l2.demand_avg_mshr_miss_latency::.cpu.inst 88477.922078                       # average overall mshr miss latency
system.l2.demand_avg_mshr_miss_latency::.cpu.data 94117.424398                       # average overall mshr miss latency
system.l2.demand_avg_mshr_miss_latency::total 94116.599530                       # average overall mshr miss latency
system.l2.overall_avg_mshr_miss_latency::.cpu.inst 88477.922078                       # average overall mshr miss latency
system.l2.overall_avg_mshr_miss_latency::.cpu.data 94117.424398                       # average overall mshr miss latency
system.l2.overall_avg_mshr_miss_latency::total 94116.599530                       # average overall mshr miss latency
system.l2.replacements                        2615880                       # number of replacements
system.l2.WritebackDirty_hits::.writebacks      2631138                       # number of WritebackDirty hits
system.l2.WritebackDirty_hits::total          2631138                       # number of WritebackDirty hits
system.l2.WritebackDirty_accesses::.writebacks      2631138                       # number of WritebackDirty accesses(hits+misses)
system.l2.WritebackDirty_accesses::total      2631138                       # number of WritebackDirty accesses(hits+misses)
system.l2.WritebackClean_hits::.writebacks          206                       # number of WritebackClean hits
system.l2.WritebackClean_hits::total              206                       # number of WritebackClean hits
system.l2.WritebackClean_accesses::.writebacks          206                       # number of WritebackClean accesses(hits+misses)
system.l2.WritebackClean_accesses::total          206                       # number of WritebackClean accesses(hits+misses)
system.l2.ReadExReq_hits::.cpu.data                12                       # number of ReadExReq hits
system.l2.ReadExReq_hits::total                    12                       # number of ReadExReq hits
system.l2.ReadExReq_misses::.cpu.data         2631606                       # number of ReadExReq misses
system.l2.ReadExReq_misses::total             2631606                       # number of ReadExReq misses
system.l2.ReadExReq_miss_latency::.cpu.data 300311281000                       # number of ReadExReq miss cycles
system.l2.ReadExReq_miss_latency::total  300311281000                       # number of ReadExReq miss cycles
system.l2.ReadExReq_accesses::.cpu.data       2631618                       # number of ReadExReq accesses(hits+misses)
system.l2.ReadExReq_accesses::total           2631618                       # number of ReadExReq accesses(hits+misses)
system.l2.ReadExReq_miss_rate::.cpu.data     0.999995                       # miss rate for ReadExReq accesses
system.l2.ReadExReq_miss_rate::total         0.999995                       # miss rate for ReadExReq accesses
system.l2.ReadExReq_avg_miss_latency::.cpu.data 114117.113656                       # average ReadExReq miss latency
system.l2.ReadExReq_avg_miss_latency::total 114117.113656                       # average ReadExReq miss latency
system.l2.ReadExReq_mshr_misses::.cpu.data      2631606                       # number of ReadExReq MSHR misses
system.l2.ReadExReq_mshr_misses::total        2631606                       # number of ReadExReq MSHR misses
system.l2.ReadExReq_mshr_miss_latency::.cpu.data 247679181000                       # number of ReadExReq MSHR miss cycles
system.l2.ReadExReq_mshr_miss_latency::total 247679181000                       # number of ReadExReq MSHR miss cycles
system.l2.ReadExReq_mshr_miss_rate::.cpu.data     0.999995                       # mshr miss rate for ReadExReq accesses
system.l2.ReadExReq_mshr_miss_rate::total     0.999995                       # mshr miss rate for ReadExReq accesses
system.l2.ReadExReq_avg_mshr_miss_latency::.cpu.data 94117.121256                       # average ReadExReq mshr miss latency
system.l2.ReadExReq_avg_mshr_miss_latency::total 94117.121256                       # average ReadExReq mshr miss latency
system.l2.ReadCleanReq_hits::.cpu.inst             72                       # number of ReadCleanReq hits
system.l2.ReadCleanReq_hits::total                 72                       # number of ReadCleanReq hits
system.l2.ReadCleanReq_misses::.cpu.inst          387                       # number of ReadCleanReq misses
system.l2.ReadCleanReq_misses::total              387                       # number of ReadCleanReq misses
system.l2.ReadCleanReq_miss_latency::.cpu.inst     41888000                       # number of ReadCleanReq miss cycles
system.l2.ReadCleanReq_miss_latency::total     41888000                       # number of ReadCleanReq miss cycles
system.l2.ReadCleanReq_accesses::.cpu.inst          459                       # number of ReadCleanReq accesses(hits+misses)
system.l2.ReadCleanReq_accesses::total            459                       # number of ReadCleanReq accesses(hits+misses)
system.l2.ReadCleanReq_miss_rate::.cpu.inst     0.843137                       # miss rate for ReadCleanReq accesses
system.l2.ReadCleanReq_miss_rate::total      0.843137                       # miss rate for ReadCleanReq accesses
system.l2.ReadCleanReq_avg_miss_latency::.cpu.inst 108237.726098                       # average ReadCleanReq miss latency
system.l2.ReadCleanReq_avg_miss_latency::total 108237.726098                       # average ReadCleanReq miss latency
system.l2.ReadCleanReq_mshr_hits::.cpu.inst            2                       # number of ReadCleanReq MSHR hits
system.l2.ReadCleanReq_mshr_hits::total             2                       # number of ReadCleanReq MSHR hits
system.l2.ReadCleanReq_mshr_misses::.cpu.inst          385                       # number of ReadCleanReq MSHR misses
system.l2.ReadCleanReq_mshr_misses::total          385                       # number of ReadCleanReq MSHR misses
system.l2.ReadCleanReq_mshr_miss_latency::.cpu.inst     34064000                       # number of ReadCleanReq MSHR miss cycles
system.l2.ReadCleanReq_mshr_miss_latency::total     34064000                       # number of ReadCleanReq MSHR miss cycles
system.l2.ReadCleanReq_mshr_miss_rate::.cpu.inst     0.838780                       # mshr miss rate for ReadCleanReq accesses
system.l2.ReadCleanReq_mshr_miss_rate::total     0.838780                       # mshr miss rate for ReadCleanReq accesses
system.l2.ReadCleanReq_avg_mshr_miss_latency::.cpu.inst 88477.922078                       # average ReadCleanReq mshr miss latency
system.l2.ReadCleanReq_avg_mshr_miss_latency::total 88477.922078                       # average ReadCleanReq mshr miss latency
system.l2.ReadSharedReq_hits::.cpu.data            44                       # number of ReadSharedReq hits
system.l2.ReadSharedReq_hits::total                44                       # number of ReadSharedReq hits
system.l2.ReadSharedReq_misses::.cpu.data          205                       # number of ReadSharedReq misses
system.l2.ReadSharedReq_misses::total             205                       # number of ReadSharedReq misses
system.l2.ReadSharedReq_miss_latency::.cpu.data     23996000                       # number of ReadSharedReq miss cycles
system.l2.ReadSharedReq_miss_latency::total     23996000                       # number of ReadSharedReq miss cycles
system.l2.ReadSharedReq_accesses::.cpu.data          249                       # number of ReadSharedReq accesses(hits+misses)
system.l2.ReadSharedReq_accesses::total           249                       # number of ReadSharedReq accesses(hits+misses)
system.l2.ReadSharedReq_miss_rate::.cpu.data     0.823293                       # miss rate for ReadSharedReq accesses
system.l2.ReadSharedReq_miss_rate::total     0.823293                       # miss rate for ReadSharedReq accesses
system.l2.ReadSharedReq_avg_miss_latency::.cpu.data 117053.658537                       # average ReadSharedReq miss latency
system.l2.ReadSharedReq_avg_miss_latency::total 117053.658537                       # average ReadSharedReq miss latency
system.l2.ReadSharedReq_mshr_hits::.cpu.data            7                       # number of ReadSharedReq MSHR hits
system.l2.ReadSharedReq_mshr_hits::total            7                       # number of ReadSharedReq MSHR hits
system.l2.ReadSharedReq_mshr_misses::.cpu.data          198                       # number of ReadSharedReq MSHR misses
system.l2.ReadSharedReq_mshr_misses::total          198                       # number of ReadSharedReq MSHR misses
system.l2.ReadSharedReq_mshr_miss_latency::.cpu.data     19433000                       # number of ReadSharedReq MSHR miss cycles
system.l2.ReadSharedReq_mshr_miss_latency::total     19433000                       # number of ReadSharedReq MSHR miss cycles
system.l2.ReadSharedReq_mshr_miss_rate::.cpu.data     0.795181                       # mshr miss rate for ReadSharedReq accesses
system.l2.ReadSharedReq_mshr_miss_rate::total     0.795181                       # mshr miss rate for ReadSharedReq accesses
system.l2.ReadSharedReq_avg_mshr_miss_latency::.cpu.data 98146.464646                       # average ReadSharedReq mshr miss latency
system.l2.ReadSharedReq_avg_mshr_miss_latency::total 98146.464646                       # average ReadSharedReq mshr miss latency
system.l2.power_state.pwrStateResidencyTicks::UNDEFINED 498482222000                       # Cumulative time (in ticks) in various power states
system.l2.tags.tagsinuse                 16168.278232                       # Cycle average of tags in use
system.l2.tags.total_refs                     5263829                       # Total number of references to valid blocks.
system.l2.tags.sampled_refs                   2632264                       # Sample count of references to valid blocks.
system.l2.tags.avg_refs                      1.999734                       # Average number of references to valid blocks.
system.l2.tags.warmup_cycle                     92000                       # Cycle when the warmup percentage was hit.
system.l2.tags.occ_blocks::.writebacks       0.437445                       # Average occupied blocks per requestor
system.l2.tags.occ_blocks::.cpu.inst         4.901579                       # Average occupied blocks per requestor
system.l2.tags.occ_blocks::.cpu.data     16162.939208                       # Average occupied blocks per requestor
system.l2.tags.occ_percent::.writebacks      0.000027                       # Average percentage of cache occupancy
system.l2.tags.occ_percent::.cpu.inst        0.000299                       # Average percentage of cache occupancy
system.l2.tags.occ_percent::.cpu.data        0.986508                       # Average percentage of cache occupancy
system.l2.tags.occ_percent::total            0.986833                       # Average percentage of cache occupancy
system.l2.tags.occ_task_id_blocks::1024         16384                       # Occupied blocks per task id
system.l2.tags.age_task_id_blocks_1024::0           53                       # Occupied blocks per task id
system.l2.tags.age_task_id_blocks_1024::1          480                       # Occupied blocks per task id
system.l2.tags.age_task_id_blocks_1024::2         4817                       # Occupied blocks per task id
system.l2.tags.age_task_id_blocks_1024::3        11034                       # Occupied blocks per task id
system.l2.tags.occ_task_id_percent::1024            1                       # Percentage of cache occupancy per task id
system.l2.tags.tag_accesses                  44742976                       # Number of tag accesses
system.l2.tags.data_accesses                 44742976                       # Number of data accesses
system.l2.tags.power_state.pwrStateResidencyTicks::UNDEFINED 498482222000                       # Cumulative time (in ticks) in various power states
system.mem_ctrls.avgPriority_.writebacks::samples   5230486.00                       # Average QoS priority value for accepted requests
system.mem_ctrls.avgPriority_.cpu.inst::samples       770.00                       # Average QoS priority value for accepted requests
system.mem_ctrls.avgPriority_.cpu.data::samples   5263606.00                       # Average QoS priority value for accepted requests
system.mem_ctrls.priorityMinLatency      0.000000018750                       # per QoS priority minimum request to response latency (s)
system.mem_ctrls.priorityMaxLatency      0.000393121500                       # per QoS priority maximum request to response latency (s)
system.mem_ctrls.numReadWriteTurnArounds       290964                       # Number of turnarounds from READ to WRITE
system.mem_ctrls.numWriteReadTurnArounds       290964                       # Number of turnarounds from WRITE to READ
system.mem_ctrls.numStayReadState            10412627                       # Number of times bus staying in READ state
system.mem_ctrls.numStayWriteState            4953208                       # Number of times bus staying in WRITE state
system.mem_ctrls.readReqs                     2632188                       # Number of read requests accepted
system.mem_ctrls.writeReqs                    2615243                       # Number of write requests accepted
system.mem_ctrls.readBursts                   5264376                       # Number of controller read bursts, including those serviced by the write queue
system.mem_ctrls.writeBursts                  5230486                       # Number of controller write bursts, including those merged in the write queue
system.mem_ctrls.servicedByWrQ                      0                       # Number of controller read bursts serviced by the write queue
system.mem_ctrls.mergedWrBursts                     0                       # Number of controller write bursts merged with an existing one
system.mem_ctrls.neitherReadNorWriteReqs            0                       # Number of requests that are neither read nor write
system.mem_ctrls.avgRdQLen                       2.00                       # Average read queue length when enqueuing
system.mem_ctrls.avgWrQLen                      25.21                       # Average write queue length when enqueuing
system.mem_ctrls.numRdRetry                         0                       # Number of times read queue was full causing retry
system.mem_ctrls.numWrRetry                         0                       # Number of times write queue was full causing retry
system.mem_ctrls.readPktSize::0                     0                       # Read request sizes (log2)
system.mem_ctrls.readPktSize::1                     0                       # Read request sizes (log2)
system.mem_ctrls.readPktSize::2                     0                       # Read request sizes (log2)
system.mem_ctrls.readPktSize::3                     0                       # Read request sizes (log2)
system.mem_ctrls.readPktSize::4                     0                       # Read request sizes (log2)
system.mem_ctrls.readPktSize::5                     0                       # Read request sizes (log2)
system.mem_ctrls.readPktSize::6               5264376                       # Read request sizes (log2)
system.mem_ctrls.readPktSize::7                     0                       # Read request sizes (log2)
system.mem_ctrls.writePktSize::0                    0                       # Write request sizes (log2)
system.mem_ctrls.writePktSize::1                    0                       # Write request sizes (log2)
system.mem_ctrls.writePktSize::2                    0                       # Write request sizes (log2)
system.mem_ctrls.writePktSize::3                    0                       # Write request sizes (log2)
system.mem_ctrls.writePktSize::4                    0                       # Write request sizes (log2)
system.mem_ctrls.writePktSize::5                    0                       # Write request sizes (log2)
system.mem_ctrls.writePktSize::6              5230486                       # Write request sizes (log2)
system.mem_ctrls.writePktSize::7                    0                       # Write request sizes (log2)
system.mem_ctrls.rdQLenPdf::0                 2632013                       # What read queue length does an incoming req see
system.mem_ctrls.rdQLenPdf::1                 2632016                       # What read queue length does an incoming req see
system.mem_ctrls.rdQLenPdf::2                     164                       # What read queue length does an incoming req see
system.mem_ctrls.rdQLenPdf::3                     163                       # What read queue length does an incoming req see
system.mem_ctrls.rdQLenPdf::4                      11                       # What read queue length does an incoming req see
system.mem_ctrls.rdQLenPdf::5                       9                       # What read queue length does an incoming req see
system.mem_ctrls.rdQLenPdf::6                       0                       # What read queue length does an incoming req see
system.mem_ctrls.rdQLenPdf::7                       0                       # What read queue length does an incoming req see
system.mem_ctrls.rdQLenPdf::8                       0                       # What read queue length does an incoming req see
system.mem_ctrls.rdQLenPdf::9                       0                       # What read queue length does an incoming req see
[...]
system.mem_ctrls.dram.bw_write::.writebacks    671540707                       # Write bandwidth from this memory (bytes/s)
system.mem_ctrls.dram.bw_write::total       671540707                       # Write bandwidth from this memory (bytes/s)
system.mem_ctrls.dram.bw_total::.writebacks    671540707                       # Total bandwidth to/from this memory (bytes/s)
system.mem_ctrls.dram.bw_total::.cpu.inst        98860                       # Total bandwidth to/from this memory (bytes/s)
system.mem_ctrls.dram.bw_total::.cpu.data    675792975                       # Total bandwidth to/from this memory (bytes/s)
system.mem_ctrls.dram.bw_total::total      1347432543                       # Total bandwidth to/from this memory (bytes/s)
system.mem_ctrls.dram.readBursts              5264376                       # Number of DRAM read bursts
system.mem_ctrls.dram.writeBursts             5230463                       # Number of DRAM write bursts
system.mem_ctrls.dram.perBankRdBursts::0       328952                       # Per bank write bursts
system.mem_ctrls.dram.perBankRdBursts::1       329132                       # Per bank write bursts
system.mem_ctrls.dram.perBankRdBursts::2       329116                       # Per bank write bursts
system.mem_ctrls.dram.perBankRdBursts::3       329102                       # Per bank write bursts
system.mem_ctrls.dram.perBankRdBursts::4       329018                       # Per bank write bursts
system.mem_ctrls.dram.perBankRdBursts::5       329106                       # Per bank write bursts
system.mem_ctrls.dram.perBankRdBursts::6       329110                       # Per bank write bursts
system.mem_ctrls.dram.perBankRdBursts::7       329044                       # Per bank write bursts
system.mem_ctrls.dram.perBankRdBursts::8       328916                       # Per bank write bursts
system.mem_ctrls.dram.perBankRdBursts::9       328886                       # Per bank write bursts
system.mem_ctrls.dram.perBankRdBursts::10       328926                       # Per bank write bursts
system.mem_ctrls.dram.perBankRdBursts::11       328944                       # Per bank write bursts
system.mem_ctrls.dram.perBankRdBursts::12       329064                       # Per bank write bursts
system.mem_ctrls.dram.perBankRdBursts::13       329058                       # Per bank write bursts
system.mem_ctrls.dram.perBankRdBursts::14       329036                       # Per bank write bursts
system.mem_ctrls.dram.perBankRdBursts::15       328966                       # Per bank write bursts
system.mem_ctrls.dram.perBankWrBursts::0       326802                       # Per bank write bursts
system.mem_ctrls.dram.perBankWrBursts::1       326964                       # Per bank write bursts
system.mem_ctrls.dram.perBankWrBursts::2       326963                       # Per bank write bursts
system.mem_ctrls.dram.perBankWrBursts::3       327024                       # Per bank write bursts
system.mem_ctrls.dram.perBankWrBursts::4       326942                       # Per bank write bursts
system.mem_ctrls.dram.perBankWrBursts::5       326998                       # Per bank write bursts
system.mem_ctrls.dram.perBankWrBursts::6       326998                       # Per bank write bursts
system.mem_ctrls.dram.perBankWrBursts::7       326972                       # Per bank write bursts
system.mem_ctrls.dram.perBankWrBursts::8       326786                       # Per bank write bursts
system.mem_ctrls.dram.perBankWrBursts::9       326784                       # Per bank write bursts
system.mem_ctrls.dram.perBankWrBursts::10       326784                       # Per bank write bursts
system.mem_ctrls.dram.perBankWrBursts::11       326848                       # Per bank write bursts
system.mem_ctrls.dram.perBankWrBursts::12       326926                       # Per bank write bursts
system.mem_ctrls.dram.perBankWrBursts::13       326920                       # Per bank write bursts
system.mem_ctrls.dram.perBankWrBursts::14       326872                       # Per bank write bursts
system.mem_ctrls.dram.perBankWrBursts::15       326880                       # Per bank write bursts
system.mem_ctrls.dram.totQLat            113158289750                       # Total ticks spent queuing
system.mem_ctrls.dram.totBusLat           26321880000                       # Total ticks spent in databus transfers
system.mem_ctrls.dram.totMemAccLat       211865339750                       # Total ticks spent from burst creation until serviced by the DRAM
system.mem_ctrls.dram.avgQLat                21495.10                       # Average queueing delay per DRAM burst
system.mem_ctrls.dram.avgBusLat               5000.00                       # Average bus latency per DRAM burst
system.mem_ctrls.dram.avgMemAccLat           40245.10                       # Average memory access latency per DRAM burst
system.mem_ctrls.dram.readRowHits             4675125                       # Number of row buffer hits during reads
system.mem_ctrls.dram.writeRowHits            4646938                       # Number of row buffer hits during writes
system.mem_ctrls.dram.readRowHitRate            88.81                       # Row buffer hit rate for reads
system.mem_ctrls.dram.writeRowHitRate           88.84                       # Row buffer hit rate for writes
system.mem_ctrls.dram.bytesPerActivate::samples      1172774                       # Bytes accessed per row activation
system.mem_ctrls.dram.bytesPerActivate::mean   572.717744                       # Bytes accessed per row activation
system.mem_ctrls.dram.bytesPerActivate::gmean   380.159168                       # Bytes accessed per row activation
system.mem_ctrls.dram.bytesPerActivate::stdev   419.830239                       # Bytes accessed per row activation
system.mem_ctrls.dram.bytesPerActivate::0-127        19211      1.64%      1.64% # Bytes accessed per row activation
system.mem_ctrls.dram.bytesPerActivate::128-255       473122     40.34%     41.98% # Bytes accessed per row activation
system.mem_ctrls.dram.bytesPerActivate::256-383        41025      3.50%     45.48% # Bytes accessed per row activation
system.mem_ctrls.dram.bytesPerActivate::384-511        33621      2.87%     48.35% # Bytes accessed per row activation
system.mem_ctrls.dram.bytesPerActivate::512-639        29385      2.51%     50.85% # Bytes accessed per row activation
system.mem_ctrls.dram.bytesPerActivate::640-767        28409      2.42%     53.27% # Bytes accessed per row activation
system.mem_ctrls.dram.bytesPerActivate::768-895        32516      2.77%     56.05% # Bytes accessed per row activation
system.mem_ctrls.dram.bytesPerActivate::896-1023        33008      2.81%     58.86% # Bytes accessed per row activation
system.mem_ctrls.dram.bytesPerActivate::1024-1151       482477     41.14%    100.00% # Bytes accessed per row activation
system.mem_ctrls.dram.bytesPerActivate::total      1172774                       # Bytes accessed per row activation
system.mem_ctrls.dram.bytesRead             336920064                       # Total number of bytes read from DRAM
system.mem_ctrls.dram.bytesWritten          334749632                       # Total number of bytes written to DRAM
system.mem_ctrls.dram.avgRdBW              675.891836                       # Average DRAM read bandwidth in MiBytes/s
system.mem_ctrls.dram.avgWrBW              671.537754                       # Average DRAM write bandwidth in MiBytes/s
system.mem_ctrls.dram.peakBW                 12800.00                       # Theoretical peak bandwidth in MiByte/s
system.mem_ctrls.dram.busUtil                   10.53                       # Data bus utilization in percentage
system.mem_ctrls.dram.busUtilRead                5.28                       # Data bus utilization in percentage for reads
system.mem_ctrls.dram.busUtilWrite               5.25                       # Data bus utilization in percentage for writes
system.mem_ctrls.dram.pageHitRate               88.83                       # Row buffer hit rate, read and write combined
system.mem_ctrls.dram.power_state.pwrStateResidencyTicks::UNDEFINED 498482222000                       # Cumulative time (in ticks) in various power states
system.mem_ctrls.dram.rank0.actEnergy      4187153040                       # Energy for activate commands per rank (pJ)
system.mem_ctrls.dram.rank0.preEnergy      2225517030                       # Energy for precharge commands per rank (pJ)
system.mem_ctrls.dram.rank0.readEnergy    18796621200                       # Energy for read commands per rank (pJ)
system.mem_ctrls.dram.rank0.writeEnergy   13653760860                       # Energy for write commands per rank (pJ)
system.mem_ctrls.dram.rank0.refreshEnergy 39349252800.000008                       # Energy for refresh commands per rank (pJ)
system.mem_ctrls.dram.rank0.actBackEnergy 115979952000                       # Energy for active background per rank (pJ)
system.mem_ctrls.dram.rank0.preBackEnergy  93749845440                       # Energy for precharge background per rank (pJ)
system.mem_ctrls.dram.rank0.actPowerDownEnergy            0                       # Energy for active power-down per rank (pJ)
system.mem_ctrls.dram.rank0.prePowerDownEnergy            0                       # Energy for precharge power-down per rank (pJ)
system.mem_ctrls.dram.rank0.selfRefreshEnergy            0                       # Energy for self refresh per rank (pJ)
system.mem_ctrls.dram.rank0.totalEnergy  287942102370                       # Total energy per rank (pJ)
system.mem_ctrls.dram.rank0.averagePower   577.637656                       # Core power per rank (mW)
system.mem_ctrls.dram.rank0.totalIdleTime            0                       # Total Idle time Per DRAM Rank
system.mem_ctrls.dram.rank0.pwrStateTime::IDLE 238684024000                       # Time in different power states
system.mem_ctrls.dram.rank0.pwrStateTime::REF  16645200000                       # Time in different power states
system.mem_ctrls.dram.rank0.pwrStateTime::SREF            0                       # Time in different power states
system.mem_ctrls.dram.rank0.pwrStateTime::PRE_PDN            0                       # Time in different power states
system.mem_ctrls.dram.rank0.pwrStateTime::ACT 243152998000                       # Time in different power states
system.mem_ctrls.dram.rank0.pwrStateTime::ACT_PDN            0                       # Time in different power states
system.mem_ctrls.dram.rank1.actEnergy      4186467600                       # Energy for activate commands per rank (pJ)
system.mem_ctrls.dram.rank1.preEnergy      2225160300                       # Energy for precharge commands per rank (pJ)
system.mem_ctrls.dram.rank1.readEnergy    18791023440                       # Energy for read commands per rank (pJ)
system.mem_ctrls.dram.rank1.writeEnergy   13649256000                       # Energy for write commands per rank (pJ)
system.mem_ctrls.dram.rank1.refreshEnergy 39349252800.000008                       # Energy for refresh commands per rank (pJ)
system.mem_ctrls.dram.rank1.actBackEnergy 115959403500                       # Energy for active background per rank (pJ)
system.mem_ctrls.dram.rank1.preBackEnergy  93767149440                       # Energy for precharge background per rank (pJ)
system.mem_ctrls.dram.rank1.actPowerDownEnergy            0                       # Energy for active power-down per rank (pJ)
system.mem_ctrls.dram.rank1.prePowerDownEnergy            0                       # Energy for precharge power-down per rank (pJ)
system.mem_ctrls.dram.rank1.selfRefreshEnergy            0                       # Energy for self refresh per rank (pJ)
system.mem_ctrls.dram.rank1.totalEnergy  287927713080                       # Total energy per rank (pJ)
system.mem_ctrls.dram.rank1.averagePower   577.608790                       # Core power per rank (mW)
system.mem_ctrls.dram.rank1.totalIdleTime            0                       # Total Idle time Per DRAM Rank
system.mem_ctrls.dram.rank1.pwrStateTime::IDLE 238725211750                       # Time in different power states
system.mem_ctrls.dram.rank1.pwrStateTime::REF  16645200000                       # Time in different power states
system.mem_ctrls.dram.rank1.pwrStateTime::SREF            0                       # Time in different power states
system.mem_ctrls.dram.rank1.pwrStateTime::PRE_PDN            0                       # Time in different power states
system.mem_ctrls.dram.rank1.pwrStateTime::ACT 243111810250                       # Time in different power states
system.mem_ctrls.dram.rank1.pwrStateTime::ACT_PDN            0                       # Time in different power states
system.mem_ctrls.power_state.pwrStateResidencyTicks::UNDEFINED 498482222000                       # Cumulative time (in ticks) in various power states
system.membus.trans_dist::ReadResp                583                       # Transaction distribution
system.membus.trans_dist::WritebackDirty      2615243                       # Transaction distribution
system.membus.trans_dist::CleanEvict              309                       # Transaction distribution
system.membus.trans_dist::ReadExReq           2631605                       # Transaction distribution
system.membus.trans_dist::ReadExResp          2631605                       # Transaction distribution
system.membus.trans_dist::ReadSharedReq           583                       # Transaction distribution
system.membus.pkt_count_system.l2.mem_side_port::system.mem_ctrls.port      7879928                       # Packet count per connected requestor and responder (bytes)
system.membus.pkt_count::total                7879928                       # Packet count per connected requestor and responder (bytes)
system.membus.pkt_size_system.l2.mem_side_port::system.mem_ctrls.port    671671168                       # Cumulative packet size per connected requestor and responder (bytes)
system.membus.pkt_size::total               671671168                       # Cumulative packet size per connected requestor and responder (bytes)
system.membus.snoops                                0                       # Total snoops (count)
system.membus.snoopTraffic                          0                       # Total snoop traffic (bytes)
system.membus.snoop_fanout::samples           2632188                       # Request fanout histogram
system.membus.snoop_fanout::mean                    0                       # Request fanout histogram
system.membus.snoop_fanout::stdev                   0                       # Request fanout histogram
system.membus.snoop_fanout::underflows              0      0.00%      0.00% # Request fanout histogram
system.membus.snoop_fanout::0                 2632188    100.00%    100.00% # Request fanout histogram
system.membus.snoop_fanout::1                       0      0.00%    100.00% # Request fanout histogram
system.membus.snoop_fanout::overflows               0      0.00%    100.00% # Request fanout histogram
system.membus.snoop_fanout::min_value               0                       # Request fanout histogram
system.membus.snoop_fanout::max_value               0                       # Request fanout histogram
system.membus.snoop_fanout::total             2632188                       # Request fanout histogram
system.membus.power_state.pwrStateResidencyTicks::UNDEFINED 498482222000                       # Cumulative time (in ticks) in various power states
system.membus.reqLayer0.occupancy         26169684000                       # Layer occupancy (ticks)
system.membus.reqLayer0.utilization               5.2                       # Layer utilization (%)
system.membus.respLayer1.occupancy        24418696500                       # Layer occupancy (ticks)
system.membus.respLayer1.utilization              4.9                       # Layer utilization (%)
system.tol2bus.trans_dist::ReadResp               708                       # Transaction distribution
system.tol2bus.trans_dist::WritebackDirty      5246381                       # Transaction distribution
system.tol2bus.trans_dist::WritebackClean          219                       # Transaction distribution
system.tol2bus.trans_dist::CleanEvict             853                       # Transaction distribution
system.tol2bus.trans_dist::ReadExReq          2631618                       # Transaction distribution
system.tol2bus.trans_dist::ReadExResp         2631617                       # Transaction distribution
system.tol2bus.trans_dist::ReadCleanReq           459                       # Transaction distribution
system.tol2bus.trans_dist::ReadSharedReq          249                       # Transaction distribution
system.tol2bus.pkt_count_system.cpu.icache.mem_side_port::system.l2.cpu_side_port         1137                       # Packet count per connected requestor and responder (bytes)
system.tol2bus.pkt_count_system.cpu.dcache.mem_side_port::system.l2.cpu_side_port      7895087                       # Packet count per connected requestor and responder (bytes)
system.tol2bus.pkt_count::total               7896224                       # Packet count per connected requestor and responder (bytes)
system.tol2bus.pkt_size_system.cpu.icache.mem_side_port::system.l2.cpu_side_port        86784                       # Cumulative packet size per connected requestor and responder (bytes)
system.tol2bus.pkt_size_system.cpu.dcache.mem_side_port::system.l2.cpu_side_port    673664512                       # Cumulative packet size per connected requestor and responder (bytes)
system.tol2bus.pkt_size::total              673751296                       # Cumulative packet size per connected requestor and responder (bytes)
system.tol2bus.snoops                         2615880                       # Total snoops (count)
system.tol2bus.snoopTraffic                 334751104                       # Total snoop traffic (bytes)
system.tol2bus.snoop_fanout::samples          5248206                       # Request fanout histogram
system.tol2bus.snoop_fanout::mean            0.000074                       # Request fanout histogram
system.tol2bus.snoop_fanout::stdev           0.008598                       # Request fanout histogram
system.tol2bus.snoop_fanout::underflows             0      0.00%      0.00% # Request fanout histogram
system.tol2bus.snoop_fanout::0                5247818     99.99%     99.99% # Request fanout histogram
system.tol2bus.snoop_fanout::1                    388      0.01%    100.00% # Request fanout histogram
system.tol2bus.snoop_fanout::2                      0      0.00%    100.00% # Request fanout histogram
system.tol2bus.snoop_fanout::overflows              0      0.00%    100.00% # Request fanout histogram
system.tol2bus.snoop_fanout::min_value              0                       # Request fanout histogram
system.tol2bus.snoop_fanout::max_value              1                       # Request fanout histogram
system.tol2bus.snoop_fanout::total            5248206                       # Request fanout histogram
system.tol2bus.power_state.pwrStateResidencyTicks::UNDEFINED 498482222000                       # Cumulative time (in ticks) in various power states
system.tol2bus.reqLayer0.occupancy        15789327000                       # Layer occupancy (ticks)
system.tol2bus.reqLayer0.utilization              3.2                       # Layer utilization (%)
system.tol2bus.respLayer0.occupancy           2296998                       # Layer occupancy (ticks)
system.tol2bus.respLayer0.utilization             0.0                       # Layer utilization (%)
system.tol2bus.respLayer1.occupancy       13159336993                       # Layer occupancy (ticks)
system.tol2bus.respLayer1.utilization             2.6                       # Layer utilization (%)
system.voltage_domain.voltage                       1                       # Voltage in Volts

---------- End Simulation Statistics   ----------
