
---------- Begin Simulation Statistics ----------
final_tick                               159512408000                       # Number of ticks from beginning of simulation (restored from checkpoints and never reset)
host_inst_rate                                 276851                       # Simulator instruction rate (inst/s)
host_mem_usage                                 663960                       # Number of bytes of host memory used
host_op_rate                                   277395                       # Simulator op (including micro ops) rate (op/s)
host_seconds                                   361.20                       # Real time elapsed on the host
host_tick_rate                              441612133                       # Simulator tick rate (ticks/s)
sim_freq                                 1000000000000                       # Frequency of simulated ticks
sim_insts                                   100000001                       # Number of instructions simulated
sim_ops                                     100196356                       # Number of ops (including micro ops) simulated
sim_seconds                                  0.159512                       # Number of seconds simulated
sim_ticks                                159512408000                       # Number of ticks simulated
system.cpu.committedInsts                   100000001                       # Number of instructions committed
system.cpu.committedOps                     100196356                       # Number of ops (including micro ops) committed
system.cpu.cpi                               1.595124                       # CPI: cycles per instruction
system.cpu.discardedOps                        189402                       # Number of ops (including micro ops) which were discarded before commit
system.cpu.idleCycles                        26962923                       # Total number of cycles that the object has spent stopped
system.cpu.ipc                               0.626910                       # IPC: instructions per cycle
system.cpu.numCycles                        159512408                       # number of cpu cycles simulated
system.cpu.numFetchSuspends                         0                       # Number of times Execute suspended instruction fetching
system.cpu.numWorkItemsCompleted                    0                       # number of work items this cpu completed
system.cpu.numWorkItemsStarted                      0                       # number of work items this cpu started
system.cpu.op_class_0::No_OpClass                   0      0.00%      0.00% # Class of committed instruction
system.cpu.op_class_0::IntAlu                46526863     46.44%     46.44% # Class of committed instruction
system.cpu.op_class_0::IntMult                  20723      0.02%     46.46% # Class of committed instruction
system.cpu.op_class_0::IntDiv                       0      0.00%     46.46% # Class of committed instruction
system.cpu.op_class_0::FloatAdd                     0      0.00%     46.46% # Class of committed instruction
system.cpu.op_class_0::FloatCmp                     0      0.00%     46.46% # Class of committed instruction
system.cpu.op_class_0::FloatCvt                     0      0.00%     46.46% # Class of committed instruction
system.cpu.op_class_0::FloatMult                    0      0.00%     46.46% # Class of committed instruction
system.cpu.op_class_0::FloatMultAcc                 0      0.00%     46.46% # Class of committed instruction
system.cpu.op_class_0::FloatDiv                     0      0.00%     46.46% # Class of committed instruction
system.cpu.op_class_0::FloatMisc                    0      0.00%     46.46% # Class of committed instruction
system.cpu.op_class_0::FloatSqrt                    0      0.00%     46.46% # Class of committed instruction
system.cpu.op_class_0::SimdAdd                      0      0.00%     46.46% # Class of committed instruction
system.cpu.op_class_0::SimdAddAcc                   0      0.00%     46.46% # Class of committed instruction
system.cpu.op_class_0::SimdAlu                      0      0.00%     46.46% # Class of committed instruction
system.cpu.op_class_0::SimdCmp                      0      0.00%     46.46% # Class of committed instruction
system.cpu.op_class_0::SimdCvt                      0      0.00%     46.46% # Class of committed instruction
system.cpu.op_class_0::SimdMisc                     0      0.00%     46.46% # Class of committed instruction
system.cpu.op_class_0::SimdMult                     0      0.00%     46.46% # Class of committed instruction
system.cpu.op_class_0::SimdMultAcc                  0      0.00%     46.46% # Class of committed instruction
system.cpu.op_class_0::SimdShift                    0      0.00%     46.46% # Class of committed instruction
system.cpu.op_class_0::SimdShiftAcc                 0      0.00%     46.46% # Class of committed instruction
system.cpu.op_class_0::SimdDiv                      0      0.00%     46.46% # Class of committed instruction
system.cpu.op_class_0::SimdSqrt                     0      0.00%     46.46% # Class of committed instruction
system.cpu.op_class_0::SimdFloatAdd                 0      0.00%     46.46% # Class of committed instruction
system.cpu.op_class_0::SimdFloatAlu                 0      0.00%     46.46% # Class of committed instruction
system.cpu.op_class_0::SimdFloatCmp                 0      0.00%     46.46% # Class of committed instruction
system.cpu.op_class_0::SimdFloatCvt                 0      0.00%     46.46% # Class of committed instruction
system.cpu.op_class_0::SimdFloatDiv                 0      0.00%     46.46% # Class of committed instruction
system.cpu.op_class_0::SimdFloatMisc               18      0.00%     46.46% # Class of committed instruction
system.cpu.op_class_0::SimdFloatMult                0      0.00%     46.46% # Class of committed instruction
system.cpu.op_class_0::SimdFloatMultAcc             0      0.00%     46.46% # Class of committed instruction
system.cpu.op_class_0::SimdFloatSqrt                0      0.00%     46.46% # Class of committed instruction
system.cpu.op_class_0::SimdReduceAdd                0      0.00%     46.46% # Class of committed instruction
system.cpu.op_class_0::SimdReduceAlu                0      0.00%     46.46% # Class of committed instruction
system.cpu.op_class_0::SimdReduceCmp                0      0.00%     46.46% # Class of committed instruction
system.cpu.op_class_0::SimdFloatReduceAdd            0      0.00%     46.46% # Class of committed instruction
system.cpu.op_class_0::SimdFloatReduceCmp            0      0.00%     46.46% # Class of committed instruction
system.cpu.op_class_0::SimdAes                      0      0.00%     46.46% # Class of committed instruction
system.cpu.op_class_0::SimdAesMix                   0      0.00%     46.46% # Class of committed instruction
system.cpu.op_class_0::SimdSha1Hash                 0      0.00%     46.46% # Class of committed instruction
system.cpu.op_class_0::SimdSha1Hash2                0      0.00%     46.46% # Class of committed instruction
system.cpu.op_class_0::SimdSha256Hash               0      0.00%     46.46% # Class of committed instruction
system.cpu.op_class_0::SimdSha256Hash2              0      0.00%     46.46% # Class of committed instruction
system.cpu.op_class_0::SimdShaSigma2                0      0.00%     46.46% # Class of committed instruction
system.cpu.op_class_0::SimdShaSigma3                0      0.00%     46.46% # Class of committed instruction
system.cpu.op_class_0::SimdPredAlu                  0      0.00%     46.46% # Class of committed instruction
system.cpu.op_class_0::MemRead               42690537     42.61%     89.06% # Class of committed instruction
system.cpu.op_class_0::MemWrite              10958215     10.94%    100.00% # Class of committed instruction
system.cpu.op_class_0::FloatMemRead                 0      0.00%    100.00% # Class of committed instruction
system.cpu.op_class_0::FloatMemWrite                0      0.00%    100.00% # Class of committed instruction
system.cpu.op_class_0::IprAccess                    0      0.00%    100.00% # Class of committed instruction
system.cpu.op_class_0::InstPrefetch                 0      0.00%    100.00% # Class of committed instruction
system.cpu.op_class_0::total                100196356                       # Class of committed instruction
system.cpu.tickCycles                       132549485                       # Number of cycles that the object actually ticked
system.cpu.workload.numSyscalls                    85                       # Number of system calls
system.membus.snoop_filter.hit_multi_requests            0                       # Number of requests hitting in the snoop filter with multiple (>1) holders of the requested data.
system.membus.snoop_filter.hit_multi_snoops            0                       # Number of snoops hitting in the snoop filter with multiple (>1) holders of the requested data.
system.membus.snoop_filter.hit_single_requests       168651                       # Number of requests hitting in the snoop filter with a single holder of the requested data.
system.membus.snoop_filter.hit_single_snoops            0                       # Number of snoops hitting in the snoop filter with a single holder of the requested data.
system.membus.snoop_filter.tot_requests        370452                       # Total number of requests made to the snoop filter.
system.membus.snoop_filter.tot_snoops               0                       # Total number of snoops made to the snoop filter.
system.tol2bus.snoop_filter.hit_multi_requests           71                       # Number of requests hitting in the snoop filter with multiple (>1) holders of the requested data.
system.tol2bus.snoop_filter.hit_multi_snoops            0                       # Number of snoops hitting in the snoop filter with multiple (>1) holders of the requested data.
system.tol2bus.snoop_filter.hit_single_requests       634877                       # Number of requests hitting in the snoop filter with a single holder of the requested data.
system.tol2bus.snoop_filter.hit_single_snoops          529                       # Number of snoops hitting in the snoop filter with a single holder of the requested data.
system.tol2bus.snoop_filter.tot_requests      1271266                       # Total number of requests made to the snoop filter.
system.tol2bus.snoop_filter.tot_snoops            529                       # Total number of snoops made to the snoop filter.
system.clk_domain.clock                          1000                       # Clock period in ticks
system.cpu.branchPred.lookups                 4485848                       # Number of BP lookups
system.cpu.branchPred.condPredicted           3735537                       # Number of conditional branches predicted
system.cpu.branchPred.condIncorrect             80999                       # Number of conditional branches incorrect
system.cpu.branchPred.BTBLookups              2103813                       # Number of BTB lookups
system.cpu.branchPred.BTBHits                 2101812                       # Number of BTB hits
system.cpu.branchPred.BTBHitPct             99.904887                       # BTB Hit Percentage
system.cpu.branchPred.RASUsed                   65380                       # Number of times the RAS was used to get a target.
system.cpu.branchPred.RASIncorrect                 14                       # Number of incorrect RAS predictions.
system.cpu.branchPred.indirectLookups             693                       # Number of indirect predictor lookups.
system.cpu.branchPred.indirectHits                288                       # Number of indirect target hits.
system.cpu.branchPred.indirectMisses              405                       # Number of indirect misses.
system.cpu.branchPred.indirectMispredicted          171                       # Number of mispredicted indirect branches.
system.cpu.dcache.demand_hits::.cpu.data     51377822                       # number of demand (read+write) hits
system.cpu.dcache.demand_hits::total         51377822                       # number of demand (read+write) hits
system.cpu.dcache.overall_hits::.cpu.data     51378332                       # number of overall hits
system.cpu.dcache.overall_hits::total        51378332                       # number of overall hits
system.cpu.dcache.demand_misses::.cpu.data       680232                       # number of demand (read+write) misses
system.cpu.dcache.demand_misses::total         680232                       # number of demand (read+write) misses
system.cpu.dcache.overall_misses::.cpu.data       688141                       # number of overall misses
system.cpu.dcache.overall_misses::total        688141                       # number of overall misses
system.cpu.dcache.demand_miss_latency::.cpu.data  33972561000                       # number of demand (read+write) miss cycles
system.cpu.dcache.demand_miss_latency::total  33972561000                       # number of demand (read+write) miss cycles
system.cpu.dcache.overall_miss_latency::.cpu.data  33972561000                       # number of overall miss cycles
system.cpu.dcache.overall_miss_latency::total  33972561000                       # number of overall miss cycles
system.cpu.dcache.demand_accesses::.cpu.data     52058054                       # number of demand (read+write) accesses
system.cpu.dcache.demand_accesses::total     52058054                       # number of demand (read+write) accesses
system.cpu.dcache.overall_accesses::.cpu.data     52066473                       # number of overall (read+write) accesses
system.cpu.dcache.overall_accesses::total     52066473                       # number of overall (read+write) accesses
system.cpu.dcache.demand_miss_rate::.cpu.data     0.013067                       # miss rate for demand accesses
system.cpu.dcache.demand_miss_rate::total     0.013067                       # miss rate for demand accesses
system.cpu.dcache.overall_miss_rate::.cpu.data     0.013217                       # miss rate for overall accesses
system.cpu.dcache.overall_miss_rate::total     0.013217                       # miss rate for overall accesses
system.cpu.dcache.demand_avg_miss_latency::.cpu.data 49942.609286                       # average overall miss latency
system.cpu.dcache.demand_avg_miss_latency::total 49942.609286                       # average overall miss latency
system.cpu.dcache.overall_avg_miss_latency::.cpu.data 49368.604690                       # average overall miss latency
system.cpu.dcache.overall_avg_miss_latency::total 49368.604690                       # average overall miss latency
system.cpu.dcache.blocked_cycles::no_mshrs       100701                       # number of cycles access was blocked
system.cpu.dcache.blocked_cycles::no_targets            0                       # number of cycles access was blocked
system.cpu.dcache.blocked::no_mshrs              3322                       # number of cycles access was blocked
system.cpu.dcache.blocked::no_targets               0                       # number of cycles access was blocked
system.cpu.dcache.avg_blocked_cycles::no_mshrs    30.313365                       # average number of cycles each access was blocked
system.cpu.dcache.avg_blocked_cycles::no_targets          nan                       # average number of cycles each access was blocked
system.cpu.dcache.writebacks::.writebacks       559713                       # number of writebacks
system.cpu.dcache.writebacks::total            559713                       # number of writebacks
system.cpu.dcache.demand_mshr_hits::.cpu.data        52427                       # number of demand (read+write) MSHR hits
system.cpu.dcache.demand_mshr_hits::total        52427                       # number of demand (read+write) MSHR hits
system.cpu.dcache.overall_mshr_hits::.cpu.data        52427                       # number of overall MSHR hits
system.cpu.dcache.overall_mshr_hits::total        52427                       # number of overall MSHR hits
system.cpu.dcache.demand_mshr_misses::.cpu.data       627805                       # number of demand (read+write) MSHR misses
system.cpu.dcache.demand_mshr_misses::total       627805                       # number of demand (read+write) MSHR misses
system.cpu.dcache.overall_mshr_misses::.cpu.data       635710                       # number of overall MSHR misses
system.cpu.dcache.overall_mshr_misses::total       635710                       # number of overall MSHR misses
system.cpu.dcache.demand_mshr_miss_latency::.cpu.data  31123030000                       # number of demand (read+write) MSHR miss cycles
system.cpu.dcache.demand_mshr_miss_latency::total  31123030000                       # number of demand (read+write) MSHR miss cycles
system.cpu.dcache.overall_mshr_miss_latency::.cpu.data  31955147999                       # number of overall MSHR miss cycles
system.cpu.dcache.overall_mshr_miss_latency::total  31955147999                       # number of overall MSHR miss cycles
system.cpu.dcache.demand_mshr_miss_rate::.cpu.data     0.012060                       # mshr miss rate for demand accesses
system.cpu.dcache.demand_mshr_miss_rate::total     0.012060                       # mshr miss rate for demand accesses
system.cpu.dcache.overall_mshr_miss_rate::.cpu.data     0.012210                       # mshr miss rate for overall accesses
system.cpu.dcache.overall_mshr_miss_rate::total     0.012210                       # mshr miss rate for overall accesses
system.cpu.dcache.demand_avg_mshr_miss_latency::.cpu.data 49574.358280                       # average overall mshr miss latency
system.cpu.dcache.demand_avg_mshr_miss_latency::total 49574.358280                       # average overall mshr miss latency
system.cpu.dcache.overall_avg_mshr_miss_latency::.cpu.data 50266.863820                       # average overall mshr miss latency
system.cpu.dcache.overall_avg_mshr_miss_latency::total 50266.863820                       # average overall mshr miss latency
system.cpu.dcache.replacements                 634686                       # number of replacements
system.cpu.dcache.ReadReq_hits::.cpu.data     40754328                       # number of ReadReq hits
system.cpu.dcache.ReadReq_hits::total        40754328                       # number of ReadReq hits
system.cpu.dcache.ReadReq_misses::.cpu.data       354644                       # number of ReadReq misses
system.cpu.dcache.ReadReq_misses::total        354644                       # number of ReadReq misses
system.cpu.dcache.ReadReq_miss_latency::.cpu.data  13730285000                       # number of ReadReq miss cycles
system.cpu.dcache.ReadReq_miss_latency::total  13730285000                       # number of ReadReq miss cycles
system.cpu.dcache.ReadReq_accesses::.cpu.data     41108972                       # number of ReadReq accesses(hits+misses)
system.cpu.dcache.ReadReq_accesses::total     41108972                       # number of ReadReq accesses(hits+misses)
system.cpu.dcache.ReadReq_miss_rate::.cpu.data     0.008627                       # miss rate for ReadReq accesses
system.cpu.dcache.ReadReq_miss_rate::total     0.008627                       # miss rate for ReadReq accesses
system.cpu.dcache.ReadReq_avg_miss_latency::.cpu.data 38715.683897                       # average ReadReq miss latency
system.cpu.dcache.ReadReq_avg_miss_latency::total 38715.683897                       # average ReadReq miss latency
system.cpu.dcache.ReadReq_mshr_hits::.cpu.data          430                       # number of ReadReq MSHR hits
system.cpu.dcache.ReadReq_mshr_hits::total          430                       # number of ReadReq MSHR hits
system.cpu.dcache.ReadReq_mshr_misses::.cpu.data       354214                       # number of ReadReq MSHR misses
system.cpu.dcache.ReadReq_mshr_misses::total       354214                       # number of ReadReq MSHR misses
system.cpu.dcache.ReadReq_mshr_miss_latency::.cpu.data  13004050000                       # number of ReadReq MSHR miss cycles
system.cpu.dcache.ReadReq_mshr_miss_latency::total  13004050000                       # number of ReadReq MSHR miss cycles
system.cpu.dcache.ReadReq_mshr_miss_rate::.cpu.data     0.008616                       # mshr miss rate for ReadReq accesses
system.cpu.dcache.ReadReq_mshr_miss_rate::total     0.008616                       # mshr miss rate for ReadReq accesses
system.cpu.dcache.ReadReq_avg_mshr_miss_latency::.cpu.data 36712.411141                       # average ReadReq mshr miss latency
system.cpu.dcache.ReadReq_avg_mshr_miss_latency::total 36712.411141                       # average ReadReq mshr miss latency
system.cpu.dcache.WriteReq_hits::.cpu.data     10623494                       # number of WriteReq hits
system.cpu.dcache.WriteReq_hits::total       10623494                       # number of WriteReq hits
system.cpu.dcache.WriteReq_misses::.cpu.data       325588                       # number of WriteReq misses
system.cpu.dcache.WriteReq_misses::total       325588                       # number of WriteReq misses
system.cpu.dcache.WriteReq_miss_latency::.cpu.data  20242276000                       # number of WriteReq miss cycles
system.cpu.dcache.WriteReq_miss_latency::total  20242276000                       # number of WriteReq miss cycles
system.cpu.dcache.WriteReq_accesses::.cpu.data     10949082                       # number of WriteReq accesses(hits+misses)
system.cpu.dcache.WriteReq_accesses::total     10949082                       # number of WriteReq accesses(hits+misses)
system.cpu.dcache.WriteReq_miss_rate::.cpu.data     0.029737                       # miss rate for WriteReq accesses
system.cpu.dcache.WriteReq_miss_rate::total     0.029737                       # miss rate for WriteReq accesses
system.cpu.dcache.WriteReq_avg_miss_latency::.cpu.data 62171.443665                       # average WriteReq miss latency
system.cpu.dcache.WriteReq_avg_miss_latency::total 62171.443665                       # average WriteReq miss latency
system.cpu.dcache.WriteReq_mshr_hits::.cpu.data        51997                       # number of WriteReq MSHR hits
system.cpu.dcache.WriteReq_mshr_hits::total        51997                       # number of WriteReq MSHR hits
system.cpu.dcache.WriteReq_mshr_misses::.cpu.data       273591                       # number of WriteReq MSHR misses
system.cpu.dcache.WriteReq_mshr_misses::total       273591                       # number of WriteReq MSHR misses
system.cpu.dcache.WriteReq_mshr_miss_latency::.cpu.data  18118980000                       # number of WriteReq MSHR miss cycles
system.cpu.dcache.WriteReq_mshr_miss_latency::total  18118980000                       # number of WriteReq MSHR miss cycles
system.cpu.dcache.WriteReq_mshr_miss_rate::.cpu.data     0.024988                       # mshr miss rate for WriteReq accesses
system.cpu.dcache.WriteReq_mshr_miss_rate::total     0.024988                       # mshr miss rate for WriteReq accesses
system.cpu.dcache.WriteReq_avg_mshr_miss_latency::.cpu.data 66226.520609                       # average WriteReq mshr miss latency
system.cpu.dcache.WriteReq_avg_mshr_miss_latency::total 66226.520609                       # average WriteReq mshr miss latency
system.cpu.dcache.SoftPFReq_hits::.cpu.data          510                       # number of SoftPFReq hits
system.cpu.dcache.SoftPFReq_hits::total           510                       # number of SoftPFReq hits
system.cpu.dcache.SoftPFReq_misses::.cpu.data         7909                       # number of SoftPFReq misses
system.cpu.dcache.SoftPFReq_misses::total         7909                       # number of SoftPFReq misses
system.cpu.dcache.SoftPFReq_accesses::.cpu.data         8419                       # number of SoftPFReq accesses(hits+misses)
system.cpu.dcache.SoftPFReq_accesses::total         8419                       # number of SoftPFReq accesses(hits+misses)
system.cpu.dcache.SoftPFReq_miss_rate::.cpu.data     0.939423                       # miss rate for SoftPFReq accesses
system.cpu.dcache.SoftPFReq_miss_rate::total     0.939423                       # miss rate for SoftPFReq accesses
system.cpu.dcache.SoftPFReq_mshr_misses::.cpu.data         7905                       # number of SoftPFReq MSHR misses
system.cpu.dcache.SoftPFReq_mshr_misses::total         7905                       # number of SoftPFReq MSHR misses
system.cpu.dcache.SoftPFReq_mshr_miss_latency::.cpu.data    832117999                       # number of SoftPFReq MSHR miss cycles
system.cpu.dcache.SoftPFReq_mshr_miss_latency::total    832117999                       # number of SoftPFReq MSHR miss cycles
system.cpu.dcache.SoftPFReq_mshr_miss_rate::.cpu.data     0.938948                       # mshr miss rate for SoftPFReq accesses
system.cpu.dcache.SoftPFReq_mshr_miss_rate::total     0.938948                       # mshr miss rate for SoftPFReq accesses
system.cpu.dcache.SoftPFReq_avg_mshr_miss_latency::.cpu.data 105264.769007                       # average SoftPFReq mshr miss latency
system.cpu.dcache.SoftPFReq_avg_mshr_miss_latency::total 105264.769007                       # average SoftPFReq mshr miss latency
system.cpu.dcache.LoadLockedReq_hits::.cpu.data           38                       # number of LoadLockedReq hits
system.cpu.dcache.LoadLockedReq_hits::total           38                       # number of LoadLockedReq hits
system.cpu.dcache.LoadLockedReq_accesses::.cpu.data           38                       # number of LoadLockedReq accesses(hits+misses)
system.cpu.dcache.LoadLockedReq_accesses::total           38                       # number of LoadLockedReq accesses(hits+misses)
system.cpu.dcache.StoreCondReq_hits::.cpu.data           38                       # number of StoreCondReq hits
system.cpu.dcache.StoreCondReq_hits::total           38                       # number of StoreCondReq hits
system.cpu.dcache.StoreCondReq_accesses::.cpu.data           38                       # number of StoreCondReq accesses(hits+misses)
system.cpu.dcache.StoreCondReq_accesses::total           38                       # number of StoreCondReq accesses(hits+misses)
system.cpu.dcache.power_state.pwrStateResidencyTicks::UNDEFINED 159512408000                       # Cumulative time (in ticks) in various power states
system.cpu.dcache.tags.tagsinuse          1012.582390                       # Cycle average of tags in use
system.cpu.dcache.tags.total_refs            52014118                       # Total number of references to valid blocks.
system.cpu.dcache.tags.sampled_refs            635710                       # Sample count of references to valid blocks.
system.cpu.dcache.tags.avg_refs             81.820512                       # Average number of references to valid blocks.
system.cpu.dcache.tags.warmup_cycle            223000                       # Cycle when the warmup percentage was hit.
system.cpu.dcache.tags.occ_blocks::.cpu.data  1012.582390                       # Average occupied blocks per requestor
system.cpu.dcache.tags.occ_percent::.cpu.data     0.988850                       # Average percentage of cache occupancy
system.cpu.dcache.tags.occ_percent::total     0.988850                       # Average percentage of cache occupancy
system.cpu.dcache.tags.occ_task_id_blocks::1024         1024                       # Occupied blocks per task id
system.cpu.dcache.tags.age_task_id_blocks_1024::0           64                       # Occupied blocks per task id
system.cpu.dcache.tags.age_task_id_blocks_1024::1          239                       # Occupied blocks per task id
system.cpu.dcache.tags.age_task_id_blocks_1024::2          707                       # Occupied blocks per task id
system.cpu.dcache.tags.age_task_id_blocks_1024::3           12                       # Occupied blocks per task id
system.cpu.dcache.tags.age_task_id_blocks_1024::4            2                       # Occupied blocks per task id
system.cpu.dcache.tags.occ_task_id_percent::1024            1                       # Percentage of cache occupancy per task id
system.cpu.dcache.tags.tag_accesses         208901906                       # Number of tag accesses
system.cpu.dcache.tags.data_accesses        208901906                       # Number of data accesses
system.cpu.dcache.tags.power_state.pwrStateResidencyTicks::UNDEFINED 159512408000                       # Cumulative time (in ticks) in various power states
system.cpu.dtb.instHits                             0                       # ITB inst hits
system.cpu.dtb.instMisses                           0                       # ITB inst misses
system.cpu.dtb.readHits                             0                       # DTB read hits
system.cpu.dtb.readMisses                           0                       # DTB read misses
system.cpu.dtb.writeHits                            0                       # DTB write hits
system.cpu.dtb.writeMisses                          0                       # DTB write misses
system.cpu.dtb.inserts                              0                       # Number of times an entry is inserted into the TLB
system.cpu.dtb.flushTlb                             0                       # Number of times complete TLB was flushed
system.cpu.dtb.flushTlbMva                          0                       # Number of times TLB was flushed by MVA
system.cpu.dtb.flushTlbMvaAsid                      0                       # Number of times TLB was flushed by MVA & ASID
system.cpu.dtb.flushTlbAsid                         0                       # Number of times TLB was flushed by ASID
system.cpu.dtb.flushedEntries                       0                       # Number of entries that have been flushed from TLB
system.cpu.dtb.alignFaults                          0                       # Number of TLB faults due to alignment restrictions
system.cpu.dtb.prefetchFaults                       0                       # Number of TLB faults due to prefetch
system.cpu.dtb.domainFaults                         0                       # Number of TLB faults due to domain restrictions
system.cpu.dtb.permsFaults                          0                       # Number of TLB faults due to permissions restrictions
system.cpu.dtb.readAccesses                         0                       # DTB read accesses
system.cpu.dtb.writeAccesses                        0                       # DTB write accesses
system.cpu.dtb.instAccesses                         0                       # ITB inst accesses
system.cpu.dtb.hits                                 0                       # Total TLB (inst and data) hits
system.cpu.dtb.misses                               0                       # Total TLB (inst and data) misses
system.cpu.dtb.accesses                             0                       # Total TLB (inst and data) accesses
system.cpu.dtb.stage2_mmu.stage2_tlb.instHits            0                       # ITB inst hits
system.cpu.dtb.stage2_mmu.stage2_tlb.instMisses            0                       # ITB inst misses
system.cpu.dtb.stage2_mmu.stage2_tlb.readHits            0                       # DTB read hits
system.cpu.dtb.stage2_mmu.stage2_tlb.readMisses            0                       # DTB read misses
system.cpu.dtb.stage2_mmu.stage2_tlb.writeHits            0                       # DTB write hits
system.cpu.dtb.stage2_mmu.stage2_tlb.writeMisses            0                       # DTB write misses
system.cpu.dtb.stage2_mmu.stage2_tlb.inserts            0                       # Number of times an entry is inserted into the TLB
system.cpu.dtb.stage2_mmu.stage2_tlb.flushTlb            0                       # Number of times complete TLB was flushed
system.cpu.dtb.stage2_mmu.stage2_tlb.flushTlbMva            0                       # Number of times TLB was flushed by MVA
system.cpu.dtb.stage2_mmu.stage2_tlb.flushTlbMvaAsid            0                       # Number of times TLB was flushed by MVA & ASID
system.cpu.dtb.stage2_mmu.stage2_tlb.flushTlbAsid            0                       # Number of times TLB was flushed by ASID
system.cpu.dtb.stage2_mmu.stage2_tlb.flushedEntries            0                       # Number of entries that have been flushed from TLB
system.cpu.dtb.stage2_mmu.stage2_tlb.alignFaults            0                       # Number of TLB faults due to alignment restrictions
system.cpu.dtb.stage2_mmu.stage2_tlb.prefetchFaults            0                       # Number of TLB faults due to prefetch
system.cpu.dtb.stage2_mmu.stage2_tlb.domainFaults            0                       # Number of TLB faults due to domain restrictions
system.cpu.dtb.stage2_mmu.stage2_tlb.permsFaults            0                       # Number of TLB faults due to permissions restrictions
system.cpu.dtb.stage2_mmu.stage2_tlb.readAccesses            0                       # DTB read accesses
system.cpu.dtb.stage2_mmu.stage2_tlb.writeAccesses            0                       # DTB write accesses
system.cpu.dtb.stage2_mmu.stage2_tlb.instAccesses            0                       # ITB inst accesses
system.cpu.dtb.stage2_mmu.stage2_tlb.hits            0                       # Total TLB (inst and data) hits
system.cpu.dtb.stage2_mmu.stage2_tlb.misses            0                       # Total TLB (inst and data) misses
system.cpu.dtb.stage2_mmu.stage2_tlb.accesses            0                       # Total TLB (inst and data) accesses
system.cpu.dtb.stage2_mmu.stage2_tlb.walker.walks            0                       # Table walker walks requested
system.cpu.dtb.stage2_mmu.stage2_tlb.walker.requestOrigin_Requested::Data            0                       # Table walker requests started/completed, data/inst
system.cpu.dtb.stage2_mmu.stage2_tlb.walker.requestOrigin_Requested::Inst            0                       # Table walker requests started/completed, data/inst
system.cpu.dtb.stage2_mmu.stage2_tlb.walker.requestOrigin_Requested::total            0                       # Table walker requests started/completed, data/inst
system.cpu.dtb.stage2_mmu.stage2_tlb.walker.requestOrigin_Completed::Data            0                       # Table walker requests started/completed, data/inst
system.cpu.dtb.stage2_mmu.stage2_tlb.walker.requestOrigin_Completed::Inst            0                       # Table walker requests started/completed, data/inst
system.cpu.dtb.stage2_mmu.stage2_tlb.walker.requestOrigin_Completed::total            0                       # Table walker requests started/completed, data/inst
system.cpu.dtb.stage2_mmu.stage2_tlb.walker.requestOrigin::total            0                       # Table walker requests started/completed, data/inst
system.cpu.dtb.stage2_mmu.stage2_tlb.walker.power_state.pwrStateResidencyTicks::UNDEFINED 159512408000                       # Cumulative time (in ticks) in various power states
system.cpu.dtb.walker.walks                         0                       # Table walker walks requested
system.cpu.dtb.walker.requestOrigin_Requested::Data            0                       # Table walker requests started/completed, data/inst
system.cpu.dtb.walker.requestOrigin_Requested::Inst            0                       # Table walker requests started/completed, data/inst
system.cpu.dtb.walker.requestOrigin_Requested::total            0                       # Table walker requests started/completed, data/inst
system.cpu.dtb.walker.requestOrigin_Completed::Data            0                       # Table walker requests started/completed, data/inst
system.cpu.dtb.walker.requestOrigin_Completed::Inst            0                       # Table walker requests started/completed, data/inst
system.cpu.dtb.walker.requestOrigin_Completed::total            0                       # Table walker requests started/completed, data/inst
system.cpu.dtb.walker.requestOrigin::total            0                       # Table walker requests started/completed, data/inst
system.cpu.dtb.walker.power_state.pwrStateResidencyTicks::UNDEFINED 159512408000                       # Cumulative time (in ticks) in various power states
system.cpu.fetch2.intInstructions            42685850                       # Number of integer instructions successfully decoded
system.cpu.fetch2.fpInstructions                    0                       # Number of floating point instructions successfully decoded
system.cpu.fetch2.vecInstructions                   0                       # Number of SIMD instructions successfully decoded
system.cpu.fetch2.loadInstructions           43474944                       # Number of memory load instructions successfully decoded
system.cpu.fetch2.storeInstructions          11024858                       # Number of memory store instructions successfully decoded
system.cpu.fetch2.amoInstructions                   0                       # Number of memory atomic instructions successfully decoded
system.cpu.icache.demand_hits::.cpu.inst     10277990                       # number of demand (read+write) hits
system.cpu.icache.demand_hits::total         10277990                       # number of demand (read+write) hits
system.cpu.icache.overall_hits::.cpu.inst     10277990                       # number of overall hits
system.cpu.icache.overall_hits::total        10277990                       # number of overall hits
system.cpu.icache.demand_misses::.cpu.inst          681                       # number of demand (read+write) misses
system.cpu.icache.demand_misses::total            681                       # number of demand (read+write) misses
system.cpu.icache.overall_misses::.cpu.inst          681                       # number of overall misses
system.cpu.icache.overall_misses::total           681                       # number of overall misses
system.cpu.icache.demand_miss_latency::.cpu.inst     69265000                       # number of demand (read+write) miss cycles
system.cpu.icache.demand_miss_latency::total     69265000                       # number of demand (read+write) miss cycles
system.cpu.icache.overall_miss_latency::.cpu.inst     69265000                       # number of overall miss cycles
system.cpu.icache.overall_miss_latency::total     69265000                       # number of overall miss cycles
system.cpu.icache.demand_accesses::.cpu.inst     10278671                       # number of demand (read+write) accesses
system.cpu.icache.demand_accesses::total     10278671                       # number of demand (read+write) accesses
system.cpu.icache.overall_accesses::.cpu.inst     10278671                       # number of overall (read+write) accesses
system.cpu.icache.overall_accesses::total     10278671                       # number of overall (read+write) accesses
system.cpu.icache.demand_miss_rate::.cpu.inst     0.000066                       # miss rate for demand accesses
system.cpu.icache.demand_miss_rate::total     0.000066                       # miss rate for demand accesses
system.cpu.icache.overall_miss_rate::.cpu.inst     0.000066                       # miss rate for overall accesses
system.cpu.icache.overall_miss_rate::total     0.000066                       # miss rate for overall accesses
system.cpu.icache.demand_avg_miss_latency::.cpu.inst 101710.719530                       # average overall miss latency
system.cpu.icache.demand_avg_miss_latency::total 101710.719530                       # average overall miss latency
system.cpu.icache.overall_avg_miss_latency::.cpu.inst 101710.719530                       # average overall miss latency
system.cpu.icache.overall_avg_miss_latency::total 101710.719530                       # average overall miss latency
system.cpu.icache.blocked_cycles::no_mshrs            0                       # number of cycles access was blocked
system.cpu.icache.blocked_cycles::no_targets            0                       # number of cycles access was blocked
system.cpu.icache.blocked::no_mshrs                 0                       # number of cycles access was blocked
system.cpu.icache.blocked::no_targets               0                       # number of cycles access was blocked
system.cpu.icache.avg_blocked_cycles::no_mshrs          nan                       # average number of cycles each access was blocked
system.cpu.icache.avg_blocked_cycles::no_targets          nan                       # average number of cycles each access was blocked
system.cpu.icache.writebacks::.writebacks          189                       # number of writebacks
system.cpu.icache.writebacks::total               189                       # number of writebacks
system.cpu.icache.demand_mshr_misses::.cpu.inst          681                       # number of demand (read+write) MSHR misses
system.cpu.icache.demand_mshr_misses::total          681                       # number of demand (read+write) MSHR misses
system.cpu.icache.overall_mshr_misses::.cpu.inst          681                       # number of overall MSHR misses
system.cpu.icache.overall_mshr_misses::total          681                       # number of overall MSHR misses
system.cpu.icache.demand_mshr_miss_latency::.cpu.inst     67903000                       # number of demand (read+write) MSHR miss cycles
system.cpu.icache.demand_mshr_miss_latency::total     67903000                       # number of demand (read+write) MSHR miss cycles
system.cpu.icache.overall_mshr_miss_latency::.cpu.inst     67903000                       # number of overall MSHR miss cycles
system.cpu.icache.overall_mshr_miss_latency::total     67903000                       # number of overall MSHR miss cycles
system.cpu.icache.demand_mshr_miss_rate::.cpu.inst     0.000066                       # mshr miss rate for demand accesses
system.cpu.icache.demand_mshr_miss_rate::total     0.000066                       # mshr miss rate for demand accesses
system.cpu.icache.overall_mshr_miss_rate::.cpu.inst     0.000066                       # mshr miss rate for overall accesses
system.cpu.icache.overall_mshr_miss_rate::total     0.000066                       # mshr miss rate for overall accesses
system.cpu.icache.demand_avg_mshr_miss_latency::.cpu.inst 99710.719530                       # average overall mshr miss latency
system.cpu.icache.demand_avg_mshr_miss_latency::total 99710.719530                       # average overall mshr miss latency
system.cpu.icache.overall_avg_mshr_miss_latency::.cpu.inst 99710.719530                       # average overall mshr miss latency
system.cpu.icache.overall_avg_mshr_miss_latency::total 99710.719530                       # average overall mshr miss latency
system.cpu.icache.replacements                    189                       # number of replacements
system.cpu.icache.ReadReq_hits::.cpu.inst     10277990                       # number of ReadReq hits
system.cpu.icache.ReadReq_hits::total        10277990                       # number of ReadReq hits
system.cpu.icache.ReadReq_misses::.cpu.inst          681                       # number of ReadReq misses
system.cpu.icache.ReadReq_misses::total           681                       # number of ReadReq misses
system.cpu.icache.ReadReq_miss_latency::.cpu.inst     69265000                       # number of ReadReq miss cycles
system.cpu.icache.ReadReq_miss_latency::total     69265000                       # number of ReadReq miss cycles
system.cpu.icache.ReadReq_accesses::.cpu.inst     10278671                       # number of ReadReq accesses(hits+misses)
system.cpu.icache.ReadReq_accesses::total     10278671                       # number of ReadReq accesses(hits+misses)
system.cpu.icache.ReadReq_miss_rate::.cpu.inst     0.000066                       # miss rate for ReadReq accesses
system.cpu.icache.ReadReq_miss_rate::total     0.000066                       # miss rate for ReadReq accesses
system.cpu.icache.ReadReq_avg_miss_latency::.cpu.inst 101710.719530                       # average ReadReq miss latency
system.cpu.icache.ReadReq_avg_miss_latency::total 101710.719530                       # average ReadReq miss latency
system.cpu.icache.ReadReq_mshr_misses::.cpu.inst          681                       # number of ReadReq MSHR misses
system.cpu.icache.ReadReq_mshr_misses::total          681                       # number of ReadReq MSHR misses
system.cpu.icache.ReadReq_mshr_miss_latency::.cpu.inst     67903000                       # number of ReadReq MSHR miss cycles
system.cpu.icache.ReadReq_mshr_miss_latency::total     67903000                       # number of ReadReq MSHR miss cycles
system.cpu.icache.ReadReq_mshr_miss_rate::.cpu.inst     0.000066                       # mshr miss rate for ReadReq accesses
system.cpu.icache.ReadReq_mshr_miss_rate::total     0.000066                       # mshr miss rate for ReadReq accesses
system.cpu.icache.ReadReq_avg_mshr_miss_latency::.cpu.inst 99710.719530                       # average ReadReq mshr miss latency
system.cpu.icache.ReadReq_avg_mshr_miss_latency::total 99710.719530                       # average ReadReq mshr miss latency
system.cpu.icache.power_state.pwrStateResidencyTicks::UNDEFINED 159512408000                       # Cumulative time (in ticks) in various power states
system.cpu.icache.tags.tagsinuse           443.800596                       # Cycle average of tags in use
system.cpu.icache.tags.total_refs            10278671                       # Total number of references to valid blocks.
system.cpu.icache.tags.sampled_refs               681                       # Sample count of references to valid blocks.
system.cpu.icache.tags.avg_refs          15093.496329                       # Average number of references to valid blocks.
system.cpu.icache.tags.warmup_cycle            108000                       # Cycle when the warmup percentage was hit.
system.cpu.icache.tags.occ_blocks::.cpu.inst   443.800596                       # Average occupied blocks per requestor
system.cpu.icache.tags.occ_percent::.cpu.inst     0.866798                       # Average percentage of cache occupancy
system.cpu.icache.tags.occ_percent::total     0.866798                       # Average percentage of cache occupancy
system.cpu.icache.tags.occ_task_id_blocks::1024          492                       # Occupied blocks per task id
system.cpu.icache.tags.age_task_id_blocks_1024::4          492                       # Occupied blocks per task id
system.cpu.icache.tags.occ_task_id_percent::1024     0.960938                       # Percentage of cache occupancy per task id
system.cpu.icache.tags.tag_accesses          41115365                       # Number of tag accesses
system.cpu.icache.tags.data_accesses         41115365                       # Number of data accesses
system.cpu.icache.tags.power_state.pwrStateResidencyTicks::UNDEFINED 159512408000                       # Cumulative time (in ticks) in various power states
system.cpu.itb.instHits                             0                       # ITB inst hits
system.cpu.itb.instMisses                           0                       # ITB inst misses
system.cpu.itb.readHits                             0                       # DTB read hits
system.cpu.itb.readMisses                           0                       # DTB read misses
system.cpu.itb.writeHits                            0                       # DTB write hits
system.cpu.itb.writeMisses                          0                       # DTB write misses
system.cpu.itb.inserts                              0                       # Number of times an entry is inserted into the TLB
system.cpu.itb.flushTlb                             0                       # Number of times complete TLB was flushed
system.cpu.itb.flushTlbMva                          0                       # Number of times TLB was flushed by MVA
system.cpu.itb.flushTlbMvaAsid                      0                       # Number of times TLB was flushed by MVA & ASID
system.cpu.itb.flushTlbAsid                         0                       # Number of times TLB was flushed by ASID
system.cpu.itb.flushedEntries                       0                       # Number of entries that have been flushed from TLB
system.cpu.itb.alignFaults                          0                       # Number of TLB faults due to alignment restrictions
system.cpu.itb.prefetchFaults                       0                       # Number of TLB faults due to prefetch
system.cpu.itb.domainFaults                         0                       # Number of TLB faults due to domain restrictions
system.cpu.itb.permsFaults                          0                       # Number of TLB faults due to permissions restrictions
system.cpu.itb.readAccesses                         0                       # DTB read accesses
system.cpu.itb.writeAccesses                        0                       # DTB write accesses
system.cpu.itb.instAccesses                         0                       # ITB inst accesses
system.cpu.itb.hits                                 0                       # Total TLB (inst and data) hits
system.cpu.itb.misses                               0                       # Total TLB (inst and data) misses
system.cpu.itb.accesses                             0                       # Total TLB (inst and data) accesses
system.cpu.itb.stage2_mmu.stage2_tlb.instHits            0                       # ITB inst hits
system.cpu.itb.stage2_mmu.stage2_tlb.instMisses            0                       # ITB inst misses
system.cpu.itb.stage2_mmu.stage2_tlb.readHits            0                       # DTB read hits
system.cpu.itb.stage2_mmu.stage2_tlb.readMisses            0                       # DTB read misses
system.cpu.itb.stage2_mmu.stage2_tlb.writeHits            0                       # DTB write hits
system.cpu.itb.stage2_mmu.stage2_tlb.writeMisses            0                       # DTB write misses
system.cpu.itb.stage2_mmu.stage2_tlb.inserts            0                       # Number of times an entry is inserted into the TLB
system.cpu.itb.stage2_mmu.stage2_tlb.flushTlb            0                       # Number of times complete TLB was flushed
system.cpu.itb.stage2_mmu.stage2_tlb.flushTlbMva            0                       # Number of times TLB was flushed by MVA
system.cpu.itb.stage2_mmu.stage2_tlb.flushTlbMvaAsid            0                       # Number of times TLB was flushed by MVA & ASID
system.cpu.itb.stage2_mmu.stage2_tlb.flushTlbAsid            0                       # Number of times TLB was flushed by ASID
system.cpu.itb.stage2_mmu.stage2_tlb.flushedEntries            0                       # Number of entries that have been flushed from TLB
system.cpu.itb.stage2_mmu.stage2_tlb.alignFaults            0                       # Number of TLB faults due to alignment restrictions
system.cpu.itb.stage2_mmu.stage2_tlb.prefetchFaults            0                       # Number of TLB faults due to prefetch
system.cpu.itb.stage2_mmu.stage2_tlb.domainFaults            0                       # Number of TLB faults due to domain restrictions
system.cpu.itb.stage2_mmu.stage2_tlb.permsFaults            0                       # Number of TLB faults due to permissions restrictions
system.cpu.itb.stage2_mmu.stage2_tlb.readAccesses            0                       # DTB read accesses
system.cpu.itb.stage2_mmu.stage2_tlb.writeAccesses            0                       # DTB write accesses
system.cpu.itb.stage2_mmu.stage2_tlb.instAccesses            0                       # ITB inst accesses
system.cpu.itb.stage2_mmu.stage2_tlb.hits            0                       # Total TLB (inst and data) hits
system.cpu.itb.stage2_mmu.stage2_tlb.misses            0                       # Total TLB (inst and data) misses
system.cpu.itb.stage2_mmu.stage2_tlb.accesses            0                       # Total TLB (inst and data) accesses
system.cpu.itb.stage2_mmu.stage2_tlb.walker.walks            0                       # Table walker walks requested
system.cpu.itb.stage2_mmu.stage2_tlb.walker.requestOrigin_Requested::Data            0                       # Table walker requests started/completed, data/inst
system.cpu.itb.stage2_mmu.stage2_tlb.walker.requestOrigin_Requested::Inst            0                       # Table walker requests started/completed, data/inst
system.cpu.itb.stage2_mmu.stage2_tlb.walker.requestOrigin_Requested::total            0                       # Table walker requests started/completed, data/inst
system.cpu.itb.stage2_mmu.stage2_tlb.walker.requestOrigin_Completed::Data            0                       # Table walker requests started/completed, data/inst
system.cpu.itb.stage2_mmu.stage2_tlb.walker.requestOrigin_Completed::Inst            0                       # Table walker requests started/completed, data/inst
system.cpu.itb.stage2_mmu.stage2_tlb.walker.requestOrigin_Completed::total            0                       # Table walker requests started/completed, data/inst
system.cpu.itb.stage2_mmu.stage2_tlb.walker.requestOrigin::total            0                       # Table walker requests started/completed, data/inst
system.cpu.itb.stage2_mmu.stage2_tlb.walker.power_state.pwrStateResidencyTicks::UNDEFINED 159512408000                       # Cumulative time (in ticks) in various power states
system.cpu.itb.walker.walks                         0                       # Table walker walks requested
system.cpu.itb.walker.requestOrigin_Requested::Data            0                       # Table walker requests started/completed, data/inst
system.cpu.itb.walker.requestOrigin_Requested::Inst            0                       # Table walker requests started/completed, data/inst
system.cpu.itb.walker.requestOrigin_Requested::total            0                       # Table walker requests started/completed, data/inst
system.cpu.itb.walker.requestOrigin_Completed::Data            0                       # Table walker requests started/completed, data/inst
system.cpu.itb.walker.requestOrigin_Completed::Inst            0                       # Table walker requests started/completed, data/inst
system.cpu.itb.walker.requestOrigin_Completed::total            0                       # Table walker requests started/completed, data/inst
system.cpu.itb.walker.requestOrigin::total            0                       # Table walker requests started/completed, data/inst
system.cpu.itb.walker.power_state.pwrStateResidencyTicks::UNDEFINED 159512408000                       # Cumulative time (in ticks) in various power states
system.cpu.power_state.pwrStateResidencyTicks::ON 159512408000                       # Cumulative time (in ticks) in various power states
system.cpu.thread0.numInsts                 100000001                       # Number of Instructions committed
system.cpu.thread0.numOps                   100196356                       # Number of Ops committed
system.cpu.thread0.numMemRefs                       0                       # Number of Memory References
system.cpu_clk_domain.clock                      1000                       # Clock period in ticks
system.cpu_voltage_domain.voltage                   1                       # Voltage in Volts
system.l2.demand_hits::.cpu.inst                   22                       # number of demand (read+write) hits
system.l2.demand_hits::.cpu.data               434557                       # number of demand (read+write) hits
system.l2.demand_hits::total                   434579                       # number of demand (read+write) hits
system.l2.overall_hits::.cpu.inst                  22                       # number of overall hits
system.l2.overall_hits::.cpu.data              434557                       # number of overall hits
system.l2.overall_hits::total                  434579                       # number of overall hits
system.l2.demand_misses::.cpu.inst                659                       # number of demand (read+write) misses
system.l2.demand_misses::.cpu.data             201153                       # number of demand (read+write) misses
system.l2.demand_misses::total                 201812                       # number of demand (read+write) misses
system.l2.overall_misses::.cpu.inst               659                       # number of overall misses
system.l2.overall_misses::.cpu.data            201153                       # number of overall misses
system.l2.overall_misses::total                201812                       # number of overall misses
system.l2.demand_miss_latency::.cpu.inst     65358000                       # number of demand (read+write) miss cycles
system.l2.demand_miss_latency::.cpu.data  20911398000                       # number of demand (read+write) miss cycles
system.l2.demand_miss_latency::total      20976756000                       # number of demand (read+write) miss cycles
system.l2.overall_miss_latency::.cpu.inst     65358000                       # number of overall miss cycles
system.l2.overall_miss_latency::.cpu.data  20911398000                       # number of overall miss cycles
system.l2.overall_miss_latency::total     20976756000                       # number of overall miss cycles
system.l2.demand_accesses::.cpu.inst              681                       # number of demand (read+write) accesses
system.l2.demand_accesses::.cpu.data           635710                       # number of demand (read+write) accesses
system.l2.demand_accesses::total               636391                       # number of demand (read+write) accesses
system.l2.overall_accesses::.cpu.inst             681                       # number of overall (read+write) accesses
system.l2.overall_accesses::.cpu.data          635710                       # number of overall (read+write) accesses
system.l2.overall_accesses::total              636391                       # number of overall (read+write) accesses
system.l2.demand_miss_rate::.cpu.inst        0.967695                       # miss rate for demand accesses
system.l2.demand_miss_rate::.cpu.data        0.316423                       # miss rate for demand accesses
system.l2.demand_miss_rate::total            0.317120                       # miss rate for demand accesses
system.l2.overall_miss_rate::.cpu.inst       0.967695                       # miss rate for overall accesses
system.l2.overall_miss_rate::.cpu.data       0.316423                       # miss rate for overall accesses
system.l2.overall_miss_rate::total           0.317120                       # miss rate for overall accesses
system.l2.demand_avg_miss_latency::.cpu.inst 99177.541730                       # average overall miss latency
system.l2.demand_avg_miss_latency::.cpu.data 103957.674009                       # average overall miss latency
system.l2.demand_avg_miss_latency::total 103942.064892                       # average overall miss latency
system.l2.overall_avg_miss_latency::.cpu.inst 99177.541730                       # average overall miss latency
system.l2.overall_avg_miss_latency::.cpu.data 103957.674009                       # average overall miss latency
system.l2.overall_avg_miss_latency::total 103942.064892                       # average overall miss latency
system.l2.blocked_cycles::no_mshrs                  0                       # number of cycles access was blocked
system.l2.blocked_cycles::no_targets                0                       # number of cycles access was blocked
system.l2.blocked::no_mshrs                         0                       # number of cycles access was blocked
system.l2.blocked::no_targets                       0                       # number of cycles access was blocked
system.l2.avg_blocked_cycles::no_mshrs            nan                       # average number of cycles each access was blocked
system.l2.avg_blocked_cycles::no_targets          nan                       # average number of cycles each access was blocked
system.l2.writebacks::.writebacks              111064                       # number of writebacks
system.l2.writebacks::total                    111064                       # number of writebacks
system.l2.demand_mshr_hits::.cpu.data               6                       # number of demand (read+write) MSHR hits
system.l2.demand_mshr_hits::total                   6                       # number of demand (read+write) MSHR hits
system.l2.overall_mshr_hits::.cpu.data              6                       # number of overall MSHR hits
system.l2.overall_mshr_hits::total                  6                       # number of overall MSHR hits
system.l2.demand_mshr_misses::.cpu.inst           659                       # number of demand (read+write) MSHR misses
system.l2.demand_mshr_misses::.cpu.data        201147                       # number of demand (read+write) MSHR misses
system.l2.demand_mshr_misses::total            201806                       # number of demand (read+write) MSHR misses
system.l2.overall_mshr_misses::.cpu.inst          659                       # number of overall MSHR misses
system.l2.overall_mshr_misses::.cpu.data       201147                       # number of overall MSHR misses
system.l2.overall_mshr_misses::total           201806                       # number of overall MSHR misses
system.l2.demand_mshr_miss_latency::.cpu.inst     52178000                       # number of demand (read+write) MSHR miss cycles
system.l2.demand_mshr_miss_latency::.cpu.data  16887781000                       # number of demand (read+write) MSHR miss cycles
system.l2.demand_mshr_miss_latency::total  16939959000                       # number of demand (read+write) MSHR miss cycles
system.l2.overall_mshr_miss_latency::.cpu.inst     52178000                       # number of overall MSHR miss cycles
system.l2.overall_mshr_miss_latency::.cpu.data  16887781000                       # number of overall MSHR miss cycles
system.l2.overall_mshr_miss_latency::total  16939959000                       # number of overall MSHR miss cycles
system.l2.demand_mshr_miss_rate::.cpu.inst     0.967695                       # mshr miss rate for demand accesses
system.l2.demand_mshr_miss_rate::.cpu.data     0.316413                       # mshr miss rate for demand accesses
system.l2.demand_mshr_miss_rate::total       0.317110                       # mshr miss rate for demand accesses
system.l2.overall_mshr_miss_rate::.cpu.inst     0.967695                       # mshr miss rate for overall accesses
system.l2.overall_mshr_miss_rate::.cpu.data     0.316413                       # mshr miss rate for overall accesses
system.l2.overall_mshr_miss_rate::total      0.317110                       # mshr miss rate for overall accesses
system.l2.demand_avg_mshr_miss_latency::.cpu.inst 79177.541730                       # average overall mshr miss latency
system.l2.demand_avg_mshr_miss_latency::.cpu.data 83957.409258                       # average overall mshr miss latency
system.l2.demand_avg_mshr_miss_latency::total 83941.800541                       # average overall mshr miss latency
system.l2.overall_avg_mshr_miss_latency::.cpu.inst 79177.541730                       # average overall mshr miss latency
system.l2.overall_avg_mshr_miss_latency::.cpu.data 83957.409258                       # average overall mshr miss latency
system.l2.overall_avg_mshr_miss_latency::total 83941.800541                       # average overall mshr miss latency
system.l2.replacements                         169175                       # number of replacements
system.l2.WritebackDirty_hits::.writebacks       559713                       # number of WritebackDirty hits
system.l2.WritebackDirty_hits::total           559713                       # number of WritebackDirty hits
system.l2.WritebackDirty_accesses::.writebacks       559713                       # number of WritebackDirty accesses(hits+misses)
system.l2.WritebackDirty_accesses::total       559713                       # number of WritebackDirty accesses(hits+misses)
system.l2.WritebackClean_hits::.writebacks          184                       # number of WritebackClean hits
system.l2.WritebackClean_hits::total              184                       # number of WritebackClean hits
system.l2.WritebackClean_accesses::.writebacks          184                       # number of WritebackClean accesses(hits+misses)
system.l2.WritebackClean_accesses::total          184                       # number of WritebackClean accesses(hits+misses)
system.l2.ReadExReq_hits::.cpu.data            137507                       # number of ReadExReq hits
system.l2.ReadExReq_hits::total                137507                       # number of ReadExReq hits
system.l2.ReadExReq_misses::.cpu.data          136084                       # number of ReadExReq misses
system.l2.ReadExReq_misses::total              136084                       # number of ReadExReq misses
system.l2.ReadExReq_miss_latency::.cpu.data  14402703000                       # number of ReadExReq miss cycles
system.l2.ReadExReq_miss_latency::total   14402703000                       # number of ReadExReq miss cycles
system.l2.ReadExReq_accesses::.cpu.data        273591                       # number of ReadExReq accesses(hits+misses)
system.l2.ReadExReq_accesses::total            273591                       # number of ReadExReq accesses(hits+misses)
system.l2.ReadExReq_miss_rate::.cpu.data     0.497399                       # miss rate for ReadExReq accesses
system.l2.ReadExReq_miss_rate::total         0.497399                       # miss rate for ReadExReq accesses
system.l2.ReadExReq_avg_miss_latency::.cpu.data 105836.858117                       # average ReadExReq miss latency
system.l2.ReadExReq_avg_miss_latency::total 105836.858117                       # average ReadExReq miss latency
system.l2.ReadExReq_mshr_misses::.cpu.data       136084                       # number of ReadExReq MSHR misses
system.l2.ReadExReq_mshr_misses::total         136084                       # number of ReadExReq MSHR misses
system.l2.ReadExReq_mshr_miss_latency::.cpu.data  11681023000                       # number of ReadExReq MSHR miss cycles
system.l2.ReadExReq_mshr_miss_latency::total  11681023000                       # number of ReadExReq MSHR miss cycles
system.l2.ReadExReq_mshr_miss_rate::.cpu.data     0.497399                       # mshr miss rate for ReadExReq accesses
system.l2.ReadExReq_mshr_miss_rate::total     0.497399                       # mshr miss rate for ReadExReq accesses
system.l2.ReadExReq_avg_mshr_miss_latency::.cpu.data 85836.858117                       # average ReadExReq mshr miss latency
system.l2.ReadExReq_avg_mshr_miss_latency::total 85836.858117                       # average ReadExReq mshr miss latency
system.l2.ReadCleanReq_hits::.cpu.inst             22                       # number of ReadCleanReq hits
system.l2.ReadCleanReq_hits::total                 22                       # number of ReadCleanReq hits
system.l2.ReadCleanReq_misses::.cpu.inst          659                       # number of ReadCleanReq misses
system.l2.ReadCleanReq_misses::total              659                       # number of ReadCleanReq misses
system.l2.ReadCleanReq_miss_latency::.cpu.inst     65358000                       # number of ReadCleanReq miss cycles
system.l2.ReadCleanReq_miss_latency::total     65358000                       # number of ReadCleanReq miss cycles
system.l2.ReadCleanReq_accesses::.cpu.inst          681                       # number of ReadCleanReq accesses(hits+misses)
system.l2.ReadCleanReq_accesses::total            681                       # number of ReadCleanReq accesses(hits+misses)
system.l2.ReadCleanReq_miss_rate::.cpu.inst     0.967695                       # miss rate for ReadCleanReq accesses
system.l2.ReadCleanReq_miss_rate::total      0.967695                       # miss rate for ReadCleanReq accesses
system.l2.ReadCleanReq_avg_miss_latency::.cpu.inst 99177.541730                       # average ReadCleanReq miss latency
system.l2.ReadCleanReq_avg_miss_latency::total 99177.541730                       # average ReadCleanReq miss latency
system.l2.ReadCleanReq_mshr_misses::.cpu.inst          659                       # number of ReadCleanReq MSHR misses
system.l2.ReadCleanReq_mshr_misses::total          659                       # number of ReadCleanReq MSHR misses
system.l2.ReadCleanReq_mshr_miss_latency::.cpu.inst     52178000                       # number of ReadCleanReq MSHR miss cycles
system.l2.ReadCleanReq_mshr_miss_latency::total     52178000                       # number of ReadCleanReq MSHR miss cycles
system.l2.ReadCleanReq_mshr_miss_rate::.cpu.inst     0.967695                       # mshr miss rate for ReadCleanReq accesses
system.l2.ReadCleanReq_mshr_miss_rate::total     0.967695                       # mshr miss rate for ReadCleanReq accesses
system.l2.ReadCleanReq_avg_mshr_miss_latency::.cpu.inst 79177.541730                       # average ReadCleanReq mshr miss latency
system.l2.ReadCleanReq_avg_mshr_miss_latency::total 79177.541730                       # average ReadCleanReq mshr miss latency
system.l2.ReadSharedReq_hits::.cpu.data        297050                       # number of ReadSharedReq hits
system.l2.ReadSharedReq_hits::total            297050                       # number of ReadSharedReq hits
system.l2.ReadSharedReq_misses::.cpu.data        65069                       # number of ReadSharedReq misses
system.l2.ReadSharedReq_misses::total           65069                       # number of ReadSharedReq misses
system.l2.ReadSharedReq_miss_latency::.cpu.data   6508695000                       # number of ReadSharedReq miss cycles
system.l2.ReadSharedReq_miss_latency::total   6508695000                       # number of ReadSharedReq miss cycles
system.l2.ReadSharedReq_accesses::.cpu.data       362119                       # number of ReadSharedReq accesses(hits+misses)
system.l2.ReadSharedReq_accesses::total        362119                       # number of ReadSharedReq accesses(hits+misses)
system.l2.ReadSharedReq_miss_rate::.cpu.data     0.179690                       # miss rate for ReadSharedReq accesses
system.l2.ReadSharedReq_miss_rate::total     0.179690                       # miss rate for ReadSharedReq accesses
system.l2.ReadSharedReq_avg_miss_latency::.cpu.data 100027.586101                       # average ReadSharedReq miss latency
system.l2.ReadSharedReq_avg_miss_latency::total 100027.586101                       # average ReadSharedReq miss latency
system.l2.ReadSharedReq_mshr_hits::.cpu.data            6                       # number of ReadSharedReq MSHR hits
system.l2.ReadSharedReq_mshr_hits::total            6                       # number of ReadSharedReq MSHR hits
system.l2.ReadSharedReq_mshr_misses::.cpu.data        65063                       # number of ReadSharedReq MSHR misses
system.l2.ReadSharedReq_mshr_misses::total        65063                       # number of ReadSharedReq MSHR misses
system.l2.ReadSharedReq_mshr_miss_latency::.cpu.data   5206758000                       # number of ReadSharedReq MSHR miss cycles
system.l2.ReadSharedReq_mshr_miss_latency::total   5206758000                       # number of ReadSharedReq MSHR miss cycles
system.l2.ReadSharedReq_mshr_miss_rate::.cpu.data     0.179673                       # mshr miss rate for ReadSharedReq accesses
system.l2.ReadSharedReq_mshr_miss_rate::total     0.179673                       # mshr miss rate for ReadSharedReq accesses
system.l2.ReadSharedReq_avg_mshr_miss_latency::.cpu.data 80026.405177                       # average ReadSharedReq mshr miss latency
system.l2.ReadSharedReq_avg_mshr_miss_latency::total 80026.405177                       # average ReadSharedReq mshr miss latency
system.l2.power_state.pwrStateResidencyTicks::UNDEFINED 159512408000                       # Cumulative time (in ticks) in various power states
system.l2.tags.tagsinuse                 32146.417333                       # Cycle average of tags in use
system.l2.tags.total_refs                     1271189                       # Total number of references to valid blocks.
system.l2.tags.sampled_refs                    201943                       # Sample count of references to valid blocks.
system.l2.tags.avg_refs                      6.294791                       # Average number of references to valid blocks.
system.l2.tags.warmup_cycle                     87000                       # Cycle when the warmup percentage was hit.
system.l2.tags.occ_blocks::.writebacks      34.232363                       # Average occupied blocks per requestor
system.l2.tags.occ_blocks::.cpu.inst        77.053285                       # Average occupied blocks per requestor
system.l2.tags.occ_blocks::.cpu.data     32035.131684                       # Average occupied blocks per requestor
system.l2.tags.occ_percent::.writebacks      0.001045                       # Average percentage of cache occupancy
system.l2.tags.occ_percent::.cpu.inst        0.002351                       # Average percentage of cache occupancy
system.l2.tags.occ_percent::.cpu.data        0.977635                       # Average percentage of cache occupancy
system.l2.tags.occ_percent::total            0.981031                       # Average percentage of cache occupancy
system.l2.tags.occ_task_id_blocks::1024         32768                       # Occupied blocks per task id
system.l2.tags.age_task_id_blocks_1024::1           21                       # Occupied blocks per task id
system.l2.tags.age_task_id_blocks_1024::2          615                       # Occupied blocks per task id
system.l2.tags.age_task_id_blocks_1024::3         8368                       # Occupied blocks per task id
system.l2.tags.age_task_id_blocks_1024::4        23764                       # Occupied blocks per task id
system.l2.tags.occ_task_id_percent::1024            1                       # Percentage of cache occupancy per task id
system.l2.tags.tag_accesses                  10371503                       # Number of tag accesses
system.l2.tags.data_accesses                 10371503                       # Number of data accesses
system.l2.tags.power_state.pwrStateResidencyTicks::UNDEFINED 159512408000                       # Cumulative time (in ticks) in various power states
system.mem_ctrls.avgPriority_.writebacks::samples    111064.00                       # Average QoS priority value for accepted requests
system.mem_ctrls.avgPriority_.cpu.inst::samples       659.00                       # Average QoS priority value for accepted requests
system.mem_ctrls.avgPriority_.cpu.data::samples    201119.00                       # Average QoS priority value for accepted requests
system.mem_ctrls.priorityMinLatency      0.000000018750                       # per QoS priority minimum request to response latency (s)
system.mem_ctrls.priorityMaxLatency      0.006771066500                       # per QoS priority maximum request to response latency (s)
system.mem_ctrls.numReadWriteTurnArounds         6619                       # Number of turnarounds from READ to WRITE
system.mem_ctrls.numWriteReadTurnArounds         6619                       # Number of turnarounds from WRITE to READ
system.mem_ctrls.numStayReadState              546399                       # Number of times bus staying in READ state
system.mem_ctrls.numStayWriteState             104568                       # Number of times bus staying in WRITE state
system.mem_ctrls.readReqs                      201806                       # Number of read requests accepted
system.mem_ctrls.writeReqs                     111064                       # Number of write requests accepted
system.mem_ctrls.readBursts                    201806                       # Number of controller read bursts, including those serviced by the write queue
system.mem_ctrls.writeBursts                   111064                       # Number of controller write bursts, including those merged in the write queue
system.mem_ctrls.servicedByWrQ                     28                       # Number of controller read bursts serviced by the write queue
system.mem_ctrls.mergedWrBursts                     0                       # Number of controller write bursts merged with an existing one
system.mem_ctrls.neitherReadNorWriteReqs            0                       # Number of requests that are neither read nor write
system.mem_ctrls.avgRdQLen                       1.05                       # Average read queue length when enqueuing
system.mem_ctrls.avgWrQLen                      24.47                       # Average write queue length when enqueuing
system.mem_ctrls.numRdRetry                         0                       # Number of times read queue was full causing retry
system.mem_ctrls.numWrRetry                         0                       # Number of times write queue was full causing retry
system.mem_ctrls.readPktSize::0                     0                       # Read request sizes (log2)
system.mem_ctrls.readPktSize::1                     0                       # Read request sizes (log2)
system.mem_ctrls.readPktSize::2                     0                       # Read request sizes (log2)
system.mem_ctrls.readPktSize::3                     0                       # Read request sizes (log2)
system.mem_ctrls.readPktSize::4                     0                       # Read request sizes (log2)
system.mem_ctrls.readPktSize::5                     0                       # Read request sizes (log2)
system.mem_ctrls.readPktSize::6                201806                       # Read request sizes (log2)
system.mem_ctrls.writePktSize::0                    0                       # Write request sizes (log2)
system.mem_ctrls.writePktSize::1                    0                       # Write request sizes (log2)
system.mem_ctrls.writePktSize::2                    0                       # Write request sizes (log2)
system.mem_ctrls.writePktSize::3                    0                       # Write request sizes (log2)
system.mem_ctrls.writePktSize::4                    0                       # Write request sizes (log2)
system.mem_ctrls.writePktSize::5                    0                       # Write request sizes (log2)
system.mem_ctrls.writePktSize::6               111064                       # Write request sizes (log2)
system.mem_ctrls.rdQLenPdf::0                  152651                       # What read queue length does an incoming req see
system.mem_ctrls.rdQLenPdf::1                   48636                       # What read queue length does an incoming req see
system.mem_ctrls.rdQLenPdf::2                     295                       # What read queue length does an incoming req see
system.mem_ctrls.rdQLenPdf::3                     195                       # What read queue length does an incoming req see
system.mem_ctrls.rdQLenPdf::4                       1                       # What read queue length does an incoming req see
system.mem_ctrls.rdQLenPdf::5                       0                       # What read queue length does an incoming req see
system.mem_ctrls.rdQLenPdf::6                       0                       # What read queue length does an incoming req see
system.mem_ctrls.rdQLenPdf::7                       0                       # What read queue length does an incoming req see
system.mem_ctrls.rdQLenPdf::8                       0                       # What read queue length does an incoming req see
system.mem_ctrls.rdQLenPdf::9                       0                       # What read queue length does an incoming req see
system.mem_ctrls.rdQLenPdf::10                      0                       # What read queue length does an incoming req see
system.mem_ctrls.rdQLenPdf::11                      0                       # What read queue length does an incoming req see
[...]
system.mem_ctrls.dram.bw_write::.writebacks     44561399                       # Write bandwidth from this memory (bytes/s)
system.mem_ctrls.dram.bw_write::total        44561399                       # Write bandwidth from this memory (bytes/s)
system.mem_ctrls.dram.bw_total::.writebacks     44561399                       # Total bandwidth to/from this memory (bytes/s)
system.mem_ctrls.dram.bw_total::.cpu.inst       264406                       # Total bandwidth to/from this memory (bytes/s)
system.mem_ctrls.dram.bw_total::.cpu.data     80704744                       # Total bandwidth to/from this memory (bytes/s)
system.mem_ctrls.dram.bw_total::total       125530548                       # Total bandwidth to/from this memory (bytes/s)
system.mem_ctrls.dram.readBursts               201778                       # Number of DRAM read bursts
system.mem_ctrls.dram.writeBursts              111048                       # Number of DRAM write bursts
system.mem_ctrls.dram.perBankRdBursts::0        12895                       # Per bank write bursts
system.mem_ctrls.dram.perBankRdBursts::1        12866                       # Per bank write bursts
system.mem_ctrls.dram.perBankRdBursts::2        12783                       # Per bank write bursts
system.mem_ctrls.dram.perBankRdBursts::3        12532                       # Per bank write bursts
system.mem_ctrls.dram.perBankRdBursts::4        12599                       # Per bank write bursts
system.mem_ctrls.dram.perBankRdBursts::5        12355                       # Per bank write bursts
system.mem_ctrls.dram.perBankRdBursts::6        12586                       # Per bank write bursts
system.mem_ctrls.dram.perBankRdBursts::7        12369                       # Per bank write bursts
system.mem_ctrls.dram.perBankRdBursts::8        12461                       # Per bank write bursts
system.mem_ctrls.dram.perBankRdBursts::9        12125                       # Per bank write bursts
system.mem_ctrls.dram.perBankRdBursts::10        12588                       # Per bank write bursts
system.mem_ctrls.dram.perBankRdBursts::11        12638                       # Per bank write bursts
system.mem_ctrls.dram.perBankRdBursts::12        12775                       # Per bank write bursts
system.mem_ctrls.dram.perBankRdBursts::13        12737                       # Per bank write bursts
system.mem_ctrls.dram.perBankRdBursts::14        12792                       # Per bank write bursts
system.mem_ctrls.dram.perBankRdBursts::15        12677                       # Per bank write bursts
system.mem_ctrls.dram.perBankWrBursts::0         7055                       # Per bank write bursts
system.mem_ctrls.dram.perBankWrBursts::1         7143                       # Per bank write bursts
system.mem_ctrls.dram.perBankWrBursts::2         7057                       # Per bank write bursts
system.mem_ctrls.dram.perBankWrBursts::3         6944                       # Per bank write bursts
system.mem_ctrls.dram.perBankWrBursts::4         7022                       # Per bank write bursts
system.mem_ctrls.dram.perBankWrBursts::5         6935                       # Per bank write bursts
system.mem_ctrls.dram.perBankWrBursts::6         7118                       # Per bank write bursts
system.mem_ctrls.dram.perBankWrBursts::7         6841                       # Per bank write bursts
system.mem_ctrls.dram.perBankWrBursts::8         6789                       # Per bank write bursts
system.mem_ctrls.dram.perBankWrBursts::9         6489                       # Per bank write bursts
system.mem_ctrls.dram.perBankWrBursts::10         6888                       # Per bank write bursts
system.mem_ctrls.dram.perBankWrBursts::11         6910                       # Per bank write bursts
system.mem_ctrls.dram.perBankWrBursts::12         6993                       # Per bank write bursts
system.mem_ctrls.dram.perBankWrBursts::13         6936                       # Per bank write bursts
system.mem_ctrls.dram.perBankWrBursts::14         7001                       # Per bank write bursts
system.mem_ctrls.dram.perBankWrBursts::15         6927                       # Per bank write bursts
system.mem_ctrls.dram.totQLat              2778753750                       # Total ticks spent queuing
system.mem_ctrls.dram.totBusLat            1008890000                       # Total ticks spent in databus transfers
system.mem_ctrls.dram.totMemAccLat         6562091250                       # Total ticks spent from burst creation until serviced by the DRAM
system.mem_ctrls.dram.avgQLat                13771.34                       # Average queueing delay per DRAM burst
system.mem_ctrls.dram.avgBusLat               5000.00                       # Average bus latency per DRAM burst
system.mem_ctrls.dram.avgMemAccLat           32521.34                       # Average memory access latency per DRAM burst
system.mem_ctrls.dram.readRowHits              132538                       # Number of row buffer hits during reads
system.mem_ctrls.dram.writeRowHits              70021                       # Number of row buffer hits during writes
system.mem_ctrls.dram.readRowHitRate            65.69                       # Row buffer hit rate for reads
system.mem_ctrls.dram.writeRowHitRate           63.05                       # Row buffer hit rate for writes
system.mem_ctrls.dram.bytesPerActivate::samples       110267                       # Bytes accessed per row activation
system.mem_ctrls.dram.bytesPerActivate::mean   181.567142                       # Bytes accessed per row activation
system.mem_ctrls.dram.bytesPerActivate::gmean   107.377060                       # Bytes accessed per row activation
system.mem_ctrls.dram.bytesPerActivate::stdev   246.620387                       # Bytes accessed per row activation
system.mem_ctrls.dram.bytesPerActivate::0-127        76170     69.08%     69.08% # Bytes accessed per row activation
system.mem_ctrls.dram.bytesPerActivate::128-255        11875     10.77%     79.85% # Bytes accessed per row activation
system.mem_ctrls.dram.bytesPerActivate::256-383         4984      4.52%     84.37% # Bytes accessed per row activation
system.mem_ctrls.dram.bytesPerActivate::384-511         1422      1.29%     85.66% # Bytes accessed per row activation
system.mem_ctrls.dram.bytesPerActivate::512-639         8767      7.95%     93.61% # Bytes accessed per row activation
system.mem_ctrls.dram.bytesPerActivate::640-767          696      0.63%     94.24% # Bytes accessed per row activation
system.mem_ctrls.dram.bytesPerActivate::768-895          372      0.34%     94.58% # Bytes accessed per row activation
system.mem_ctrls.dram.bytesPerActivate::896-1023          433      0.39%     94.97% # Bytes accessed per row activation
system.mem_ctrls.dram.bytesPerActivate::1024-1151         5548      5.03%    100.00% # Bytes accessed per row activation
system.mem_ctrls.dram.bytesPerActivate::total       110267                       # Bytes accessed per row activation
system.mem_ctrls.dram.bytesRead              12913792                       # Total number of bytes read from DRAM
system.mem_ctrls.dram.bytesWritten            7107072                       # Total number of bytes written to DRAM
system.mem_ctrls.dram.avgRdBW               80.957915                       # Average DRAM read bandwidth in MiBytes/s
system.mem_ctrls.dram.avgWrBW               44.554979                       # Average DRAM write bandwidth in MiBytes/s
system.mem_ctrls.dram.peakBW                 12800.00                       # Theoretical peak bandwidth in MiByte/s
system.mem_ctrls.dram.busUtil                    0.98                       # Data bus utilization in percentage
system.mem_ctrls.dram.busUtilRead                0.63                       # Data bus utilization in percentage for reads
system.mem_ctrls.dram.busUtilWrite               0.35                       # Data bus utilization in percentage for writes
system.mem_ctrls.dram.pageHitRate               64.75                       # Row buffer hit rate, read and write combined
system.mem_ctrls.dram.power_state.pwrStateResidencyTicks::UNDEFINED 159512408000                       # Cumulative time (in ticks) in various power states
system.mem_ctrls.dram.rank0.actEnergy       396841200                       # Energy for activate commands per rank (pJ)
system.mem_ctrls.dram.rank0.preEnergy       210926100                       # Energy for precharge commands per rank (pJ)
system.mem_ctrls.dram.rank0.readEnergy      721032900                       # Energy for read commands per rank (pJ)
system.mem_ctrls.dram.rank0.writeEnergy     292920300                       # Energy for write commands per rank (pJ)
system.mem_ctrls.dram.rank0.refreshEnergy 12591515040.000002                       # Energy for refresh commands per rank (pJ)
system.mem_ctrls.dram.rank0.actBackEnergy  32656725570                       # Energy for active background per rank (pJ)
system.mem_ctrls.dram.rank0.preBackEnergy  33752364480                       # Energy for precharge background per rank (pJ)
system.mem_ctrls.dram.rank0.actPowerDownEnergy            0                       # Energy for active power-down per rank (pJ)
system.mem_ctrls.dram.rank0.prePowerDownEnergy            0                       # Energy for precharge power-down per rank (pJ)
system.mem_ctrls.dram.rank0.selfRefreshEnergy            0                       # Energy for self refresh per rank (pJ)
system.mem_ctrls.dram.rank0.totalEnergy   80622325590                       # Total energy per rank (pJ)
system.mem_ctrls.dram.rank0.averagePower   505.429807                       # Core power per rank (mW)
system.mem_ctrls.dram.rank0.totalIdleTime            0                       # Total Idle time Per DRAM Rank
system.mem_ctrls.dram.rank0.pwrStateTime::IDLE  87402527750                       # Time in different power states
system.mem_ctrls.dram.rank0.pwrStateTime::REF   5326360000                       # Time in different power states
system.mem_ctrls.dram.rank0.pwrStateTime::SREF            0                       # Time in different power states
system.mem_ctrls.dram.rank0.pwrStateTime::PRE_PDN            0                       # Time in different power states
system.mem_ctrls.dram.rank0.pwrStateTime::ACT  66783520250                       # Time in different power states
system.mem_ctrls.dram.rank0.pwrStateTime::ACT_PDN            0                       # Time in different power states
system.mem_ctrls.dram.rank1.actEnergy       390465180                       # Energy for activate commands per rank (pJ)
system.mem_ctrls.dram.rank1.preEnergy       207537165                       # Energy for precharge commands per rank (pJ)
system.mem_ctrls.dram.rank1.readEnergy      719662020                       # Energy for read commands per rank (pJ)
system.mem_ctrls.dram.rank1.writeEnergy     286750260                       # Energy for write commands per rank (pJ)
system.mem_ctrls.dram.rank1.refreshEnergy 12591515040.000002                       # Energy for refresh commands per rank (pJ)
system.mem_ctrls.dram.rank1.actBackEnergy  32369373750                       # Energy for active background per rank (pJ)
system.mem_ctrls.dram.rank1.preBackEnergy  33994344960                       # Energy for precharge background per rank (pJ)
system.mem_ctrls.dram.rank1.actPowerDownEnergy            0                       # Energy for active power-down per rank (pJ)
system.mem_ctrls.dram.rank1.prePowerDownEnergy            0                       # Energy for precharge power-down per rank (pJ)
system.mem_ctrls.dram.rank1.selfRefreshEnergy            0                       # Energy for self refresh per rank (pJ)
system.mem_ctrls.dram.rank1.totalEnergy   80559648375                       # Total energy per rank (pJ)
system.mem_ctrls.dram.rank1.averagePower   505.036877                       # Core power per rank (mW)
system.mem_ctrls.dram.rank1.totalIdleTime            0                       # Total Idle time Per DRAM Rank
system.mem_ctrls.dram.rank1.pwrStateTime::IDLE  88034761500                       # Time in different power states
system.mem_ctrls.dram.rank1.pwrStateTime::REF   5326360000                       # Time in different power states
system.mem_ctrls.dram.rank1.pwrStateTime::SREF            0                       # Time in different power states
system.mem_ctrls.dram.rank1.pwrStateTime::PRE_PDN            0                       # Time in different power states
system.mem_ctrls.dram.rank1.pwrStateTime::ACT  66151286500                       # Time in different power states
system.mem_ctrls.dram.rank1.pwrStateTime::ACT_PDN            0                       # Time in different power states
system.mem_ctrls.power_state.pwrStateResidencyTicks::UNDEFINED 159512408000                       # Cumulative time (in ticks) in various power states
system.membus.trans_dist::ReadResp              65722                       # Transaction distribution
system.membus.trans_dist::WritebackDirty       111064                       # Transaction distribution
system.membus.trans_dist::CleanEvict            57582                       # Transaction distribution
system.membus.trans_dist::ReadExReq            136084                       # Transaction distribution
system.membus.trans_dist::ReadExResp           136084                       # Transaction distribution
system.membus.trans_dist::ReadSharedReq         65722                       # Transaction distribution
system.membus.pkt_count_system.l2.mem_side_port::system.mem_ctrls.port       572258                       # Packet count per connected requestor and responder (bytes)
system.membus.pkt_count::total                 572258                       # Packet count per connected requestor and responder (bytes)
system.membus.pkt_size_system.l2.mem_side_port::system.mem_ctrls.port     20023680                       # Cumulative packet size per connected requestor and responder (bytes)
system.membus.pkt_size::total                20023680                       # Cumulative packet size per connected requestor and responder (bytes)
system.membus.snoops                                0                       # Total snoops (count)
system.membus.snoopTraffic                          0                       # Total snoop traffic (bytes)
system.membus.snoop_fanout::samples            201806                       # Request fanout histogram
system.membus.snoop_fanout::mean                    0                       # Request fanout histogram
system.membus.snoop_fanout::stdev                   0                       # Request fanout histogram
system.membus.snoop_fanout::underflows              0      0.00%      0.00% # Request fanout histogram
system.membus.snoop_fanout::0                  201806    100.00%    100.00% # Request fanout histogram
system.membus.snoop_fanout::1                       0      0.00%    100.00% # Request fanout histogram
system.membus.snoop_fanout::overflows               0      0.00%    100.00% # Request fanout histogram
system.membus.snoop_fanout::min_value               0                       # Request fanout histogram
system.membus.snoop_fanout::max_value               0                       # Request fanout histogram
system.membus.snoop_fanout::total              201806                       # Request fanout histogram
system.membus.power_state.pwrStateResidencyTicks::UNDEFINED 159512408000                       # Cumulative time (in ticks) in various power states
system.membus.reqLayer0.occupancy           814708000                       # Layer occupancy (ticks)
system.membus.reqLayer0.utilization               0.5                       # Layer utilization (%)
system.membus.respLayer1.occupancy         1090560750                       # Layer occupancy (ticks)
system.membus.respLayer1.utilization              0.7                       # Layer utilization (%)
system.tol2bus.trans_dist::ReadResp            362800                       # Transaction distribution
system.tol2bus.trans_dist::WritebackDirty       670777                       # Transaction distribution
system.tol2bus.trans_dist::WritebackClean          189                       # Transaction distribution
system.tol2bus.trans_dist::CleanEvict          133084                       # Transaction distribution
system.tol2bus.trans_dist::ReadExReq           273591                       # Transaction distribution
system.tol2bus.trans_dist::ReadExResp          273591                       # Transaction distribution
system.tol2bus.trans_dist::ReadCleanReq           681                       # Transaction distribution
system.tol2bus.trans_dist::ReadSharedReq       362119                       # Transaction distribution
system.tol2bus.pkt_count_system.cpu.icache.mem_side_port::system.l2.cpu_side_port         1551                       # Packet count per connected requestor and responder (bytes)
system.tol2bus.pkt_count_system.cpu.dcache.mem_side_port::system.l2.cpu_side_port      1906106                       # Packet count per connected requestor and responder (bytes)
system.tol2bus.pkt_count::total               1907657                       # Packet count per connected requestor and responder (bytes)
system.tol2bus.pkt_size_system.cpu.icache.mem_side_port::system.l2.cpu_side_port        55680                       # Cumulative packet size per connected requestor and responder (bytes)
system.tol2bus.pkt_size_system.cpu.dcache.mem_side_port::system.l2.cpu_side_port     76507072                       # Cumulative packet size per connected requestor and responder (bytes)
system.tol2bus.pkt_size::total               76562752                       # Cumulative packet size per connected requestor and responder (bytes)
system.tol2bus.snoops                          169175                       # Total snoops (count)
system.tol2bus.snoopTraffic                   7108096                       # Total snoop traffic (bytes)
system.tol2bus.snoop_fanout::samples           805566                       # Request fanout histogram
system.tol2bus.snoop_fanout::mean            0.000747                       # Request fanout histogram
system.tol2bus.snoop_fanout::stdev           0.027327                       # Request fanout histogram
system.tol2bus.snoop_fanout::underflows             0      0.00%      0.00% # Request fanout histogram
system.tol2bus.snoop_fanout::0                 804964     99.93%     99.93% # Request fanout histogram
system.tol2bus.snoop_fanout::1                    602      0.07%    100.00% # Request fanout histogram
system.tol2bus.snoop_fanout::2                      0      0.00%    100.00% # Request fanout histogram
system.tol2bus.snoop_fanout::overflows              0      0.00%    100.00% # Request fanout histogram
system.tol2bus.snoop_fanout::min_value              0                       # Request fanout histogram
system.tol2bus.snoop_fanout::max_value              1                       # Request fanout histogram
system.tol2bus.snoop_fanout::total             805566                       # Request fanout histogram
system.tol2bus.power_state.pwrStateResidencyTicks::UNDEFINED 159512408000                       # Cumulative time (in ticks) in various power states
system.tol2bus.reqLayer0.occupancy         2391070000                       # Layer occupancy (ticks)
system.tol2bus.reqLayer0.utilization              1.5                       # Layer utilization (%)
system.tol2bus.respLayer0.occupancy           2043000                       # Layer occupancy (ticks)
system.tol2bus.respLayer0.utilization             0.0                       # Layer utilization (%)
system.tol2bus.respLayer1.occupancy        1907135994                       # Layer occupancy (ticks)
system.tol2bus.respLayer1.utilization             1.2                       # Layer utilization (%)
system.voltage_domain.voltage                       1                       # Voltage in Volts

---------- End Simulation Statistics   ----------
