
---------- Begin Simulation Statistics ----------
final_tick                               163789862000                       # Number of ticks from beginning of simulation (restored from checkpoints and never reset)
host_inst_rate                                 269757                       # Simulator instruction rate (inst/s)
host_mem_usage                                 663964                       # Number of bytes of host memory used
host_op_rate                                   270286                       # Simulator op (including micro ops) rate (op/s)
host_seconds                                   370.70                       # Real time elapsed on the host
host_tick_rate                              441834129                       # Simulator tick rate (ticks/s)
sim_freq                                 1000000000000                       # Frequency of simulated ticks
sim_insts                                   100000001                       # Number of instructions simulated
sim_ops                                     100196356                       # Number of ops (including micro ops) simulated
sim_seconds                                  0.163790                       # Number of seconds simulated
sim_ticks                                163789862000                       # Number of ticks simulated
system.cpu.committedInsts                   100000001                       # Number of instructions committed
system.cpu.committedOps                     100196356                       # Number of ops (including micro ops) committed
system.cpu.cpi                               1.637899                       # CPI: cycles per instruction
system.cpu.discardedOps                        189513                       # Number of ops (including micro ops) which were discarded before commit
system.cpu.idleCycles                        30955922                       # Total number of cycles that the object has spent stopped
system.cpu.ipc                               0.610538                       # IPC: instructions per cycle
system.cpu.numCycles                        163789862                       # number of cpu cycles simulated
system.cpu.numFetchSuspends                         0                       # Number of times Execute suspended instruction fetching
system.cpu.numWorkItemsCompleted                    0                       # number of work items this cpu completed
system.cpu.numWorkItemsStarted                      0                       # number of work items this cpu started
system.cpu.op_class_0::No_OpClass                   0      0.00%      0.00% # Class of committed instruction
system.cpu.op_class_0::IntAlu                46526863     46.44%     46.44% # Class of committed instruction
system.cpu.op_class_0::IntMult                  20723      0.02%     46.46% # Class of committed instruction
system.cpu.op_class_0::IntDiv                       0      0.00%     46.46% # Class of committed instruction
system.cpu.op_class_0::FloatAdd                     0      0.00%     46.46% # Class of committed instruction
system.cpu.op_class_0::FloatCmp                     0      0.00%     46.46% # Class of committed instruction
system.cpu.op_class_0::FloatCvt                     0      0.00%     46.46% # Class of committed instruction
system.cpu.op_class_0::FloatMult                    0      0.00%     46.46% # Class of committed instruction
system.cpu.op_class_0::FloatMultAcc                 0      0.00%     46.46% # Class of committed instruction
system.cpu.op_class_0::FloatDiv                     0      0.00%     46.46% # Class of committed instruction
system.cpu.op_class_0::FloatMisc                    0      0.00%     46.46% # Class of committed instruction
system.cpu.op_class_0::FloatSqrt                    0      0.00%     46.46% # Class of committed instruction
system.cpu.op_class_0::SimdAdd                      0      0.00%     46.46% # Class of committed instruction
system.cpu.op_class_0::SimdAddAcc                   0      0.00%     46.46% # Class of committed instruction
system.cpu.op_class_0::SimdAlu                      0      0.00%     46.46% # Class of committed instruction
system.cpu.op_class_0::SimdCmp                      0      0.00%     46.46% # Class of committed instruction
system.cpu.op_class_0::SimdCvt                      0      0.00%     46.46% # Class of committed instruction
system.cpu.op_class_0::SimdMisc                     0      0.00%     46.46% # Class of committed instruction
system.cpu.op_class_0::SimdMult                     0      0.00%     46.46% # Class of committed instruction
system.cpu.op_class_0::SimdMultAcc                  0      0.00%     46.46% # Class of committed instruction
system.cpu.op_class_0::SimdShift                    0      0.00%     46.46% # Class of committed instruction
system.cpu.op_class_0::SimdShiftAcc                 0      0.00%     46.46% # Class of committed instruction
system.cpu.op_class_0::SimdDiv                      0      0.00%     46.46% # Class of committed instruction
system.cpu.op_class_0::SimdSqrt                     0      0.00%     46.46% # Class of committed instruction
system.cpu.op_class_0::SimdFloatAdd                 0      0.00%     46.46% # Class of committed instruction
system.cpu.op_class_0::SimdFloatAlu                 0      0.00%     46.46% # Class of committed instruction
system.cpu.op_class_0::SimdFloatCmp                 0      0.00%     46.46% # Class of committed instruction
system.cpu.op_class_0::SimdFloatCvt                 0      0.00%     46.46% # Class of committed instruction
system.cpu.op_class_0::SimdFloatDiv                 0      0.00%     46.46% # Class of committed instruction
system.cpu.op_class_0::SimdFloatMisc               18      0.00%     46.46% # Class of committed instruction
system.cpu.op_class_0::SimdFloatMult                0      0.00%     46.46% # Class of committed instruction
system.cpu.op_class_0::SimdFloatMultAcc             0      0.00%     46.46% # Class of committed instruction
system.cpu.op_class_0::SimdFloatSqrt                0      0.00%     46.46% # Class of committed instruction
system.cpu.op_class_0::SimdReduceAdd                0      0.00%     46.46% # Class of committed instruction
system.cpu.op_class_0::SimdReduceAlu                0      0.00%     46.46% # Class of committed instruction
system.cpu.op_class_0::SimdReduceCmp                0      0.00%     46.46% # Class of committed instruction
system.cpu.op_class_0::SimdFloatReduceAdd            0      0.00%     46.46% # Class of committed instruction
system.cpu.op_class_0::SimdFloatReduceCmp            0      0.00%     46.46% # Class of committed instruction
system.cpu.op_class_0::SimdAes                      0      0.00%     46.46% # Class of committed instruction
system.cpu.op_class_0::SimdAesMix                   0      0.00%     46.46% # Class of committed instruction
system.cpu.op_class_0::SimdSha1Hash                 0      0.00%     46.46% # Class of committed instruction
system.cpu.op_class_0::SimdSha1Hash2                0      0.00%     46.46% # Class of committed instruction
system.cpu.op_class_0::SimdSha256Hash               0      0.00%     46.46% # Class of committed instruction
system.cpu.op_class_0::SimdSha256Hash2              0      0.00%     46.46% # Class of committed instruction
system.cpu.op_class_0::SimdShaSigma2                0      0.00%     46.46% # Class of committed instruction
system.cpu.op_class_0::SimdShaSigma3                0      0.00%     46.46% # Class of committed instruction
system.cpu.op_class_0::SimdPredAlu                  0      0.00%     46.46% # Class of committed instruction
system.cpu.op_class_0::MemRead               42690537     42.61%     89.06% # Class of committed instruction
system.cpu.op_class_0::MemWrite              10958215     10.94%    100.00% # Class of committed instruction
system.cpu.op_class_0::FloatMemRead                 0      0.00%    100.00% # Class of committed instruction
system.cpu.op_class_0::FloatMemWrite                0      0.00%    100.00% # Class of committed instruction
system.cpu.op_class_0::IprAccess                    0      0.00%    100.00% # Class of committed instruction
system.cpu.op_class_0::InstPrefetch                 0      0.00%    100.00% # Class of committed instruction
system.cpu.op_class_0::total                100196356                       # Class of committed instruction
system.cpu.tickCycles                       132833940                       # Number of cycles that the object actually ticked
system.cpu.workload.numSyscalls                    85                       # Number of system calls
system.membus.snoop_filter.hit_multi_requests            0                       # Number of requests hitting in the snoop filter with multiple (>1) holders of the requested data.
system.membus.snoop_filter.hit_multi_snoops            0                       # Number of snoops hitting in the snoop filter with multiple (>1) holders of the requested data.
system.membus.snoop_filter.hit_single_requests       168711                       # Number of requests hitting in the snoop filter with a single holder of the requested data.
system.membus.snoop_filter.hit_single_snoops            0                       # Number of snoops hitting in the snoop filter with a single holder of the requested data.
system.membus.snoop_filter.tot_requests        370518                       # Total number of requests made to the snoop filter.
system.membus.snoop_filter.tot_snoops               0                       # Total number of snoops made to the snoop filter.
system.tol2bus.snoop_filter.hit_multi_requests          380                       # Number of requests hitting in the snoop filter with multiple (>1) holders of the requested data.
system.tol2bus.snoop_filter.hit_multi_snoops            0                       # Number of snoops hitting in the snoop filter with multiple (>1) holders of the requested data.
system.tol2bus.snoop_filter.hit_single_requests       875013                       # Number of requests hitting in the snoop filter with a single holder of the requested data.
system.tol2bus.snoop_filter.hit_single_snoops          469                       # Number of snoops hitting in the snoop filter with a single holder of the requested data.
system.tol2bus.snoop_filter.tot_requests      1750976                       # Total number of requests made to the snoop filter.
system.tol2bus.snoop_filter.tot_snoops            469                       # Total number of snoops made to the snoop filter.
system.clk_domain.clock                          1000                       # Clock period in ticks
system.cpu.branchPred.lookups                 4485766                       # Number of BP lookups
system.cpu.branchPred.condPredicted           3735452                       # Number of conditional branches predicted
system.cpu.branchPred.condIncorrect             81005                       # Number of conditional branches incorrect
system.cpu.branchPred.BTBLookups              2103829                       # Number of BTB lookups
system.cpu.branchPred.BTBHits                 2101827                       # Number of BTB hits
system.cpu.branchPred.BTBHitPct             99.904840                       # BTB Hit Percentage
system.cpu.branchPred.RASUsed                   65379                       # Number of times the RAS was used to get a target.
system.cpu.branchPred.RASIncorrect                 14                       # Number of incorrect RAS predictions.
system.cpu.branchPred.indirectLookups             691                       # Number of indirect predictor lookups.
system.cpu.branchPred.indirectHits                288                       # Number of indirect target hits.
system.cpu.branchPred.indirectMisses              403                       # Number of indirect misses.
system.cpu.branchPred.indirectMispredicted          171                       # Number of mispredicted indirect branches.
system.cpu.dcache.demand_hits::.cpu.data     51140330                       # number of demand (read+write) hits
system.cpu.dcache.demand_hits::total         51140330                       # number of demand (read+write) hits
system.cpu.dcache.overall_hits::.cpu.data     51140802                       # number of overall hits
system.cpu.dcache.overall_hits::total        51140802                       # number of overall hits
system.cpu.dcache.demand_misses::.cpu.data       920432                       # number of demand (read+write) misses
system.cpu.dcache.demand_misses::total         920432                       # number of demand (read+write) misses
system.cpu.dcache.overall_misses::.cpu.data       928379                       # number of overall misses
system.cpu.dcache.overall_misses::total        928379                       # number of overall misses
system.cpu.dcache.demand_miss_latency::.cpu.data  40212302000                       # number of demand (read+write) miss cycles
system.cpu.dcache.demand_miss_latency::total  40212302000                       # number of demand (read+write) miss cycles
system.cpu.dcache.overall_miss_latency::.cpu.data  40212302000                       # number of overall miss cycles
system.cpu.dcache.overall_miss_latency::total  40212302000                       # number of overall miss cycles
system.cpu.dcache.demand_accesses::.cpu.data     52060762                       # number of demand (read+write) accesses
system.cpu.dcache.demand_accesses::total     52060762                       # number of demand (read+write) accesses
system.cpu.dcache.overall_accesses::.cpu.data     52069181                       # number of overall (read+write) accesses
system.cpu.dcache.overall_accesses::total     52069181                       # number of overall (read+write) accesses
system.cpu.dcache.demand_miss_rate::.cpu.data     0.017680                       # miss rate for demand accesses
system.cpu.dcache.demand_miss_rate::total     0.017680                       # miss rate for demand accesses
system.cpu.dcache.overall_miss_rate::.cpu.data     0.017830                       # miss rate for overall accesses
system.cpu.dcache.overall_miss_rate::total     0.017830                       # miss rate for overall accesses
system.cpu.dcache.demand_avg_miss_latency::.cpu.data 43688.509309                       # average overall miss latency
system.cpu.dcache.demand_avg_miss_latency::total 43688.509309                       # average overall miss latency
system.cpu.dcache.overall_avg_miss_latency::.cpu.data 43314.532104                       # average overall miss latency
system.cpu.dcache.overall_avg_miss_latency::total 43314.532104                       # average overall miss latency
system.cpu.dcache.blocked_cycles::no_mshrs        97146                       # number of cycles access was blocked
system.cpu.dcache.blocked_cycles::no_targets            0                       # number of cycles access was blocked
system.cpu.dcache.blocked::no_mshrs              3346                       # number of cycles access was blocked
system.cpu.dcache.blocked::no_targets               0                       # number of cycles access was blocked
system.cpu.dcache.avg_blocked_cycles::no_mshrs    29.033473                       # average number of cycles each access was blocked
system.cpu.dcache.avg_blocked_cycles::no_targets          nan                       # average number of cycles each access was blocked
system.cpu.dcache.writebacks::.writebacks       796020                       # number of writebacks
system.cpu.dcache.writebacks::total            796020                       # number of writebacks
system.cpu.dcache.demand_mshr_hits::.cpu.data        53184                       # number of demand (read+write) MSHR hits
system.cpu.dcache.demand_mshr_hits::total        53184                       # number of demand (read+write) MSHR hits
system.cpu.dcache.overall_mshr_hits::.cpu.data        53184                       # number of overall MSHR hits
system.cpu.dcache.overall_mshr_hits::total        53184                       # number of overall MSHR hits
system.cpu.dcache.demand_mshr_misses::.cpu.data       867248                       # number of demand (read+write) MSHR misses
system.cpu.dcache.demand_mshr_misses::total       867248                       # number of demand (read+write) MSHR misses
system.cpu.dcache.overall_mshr_misses::.cpu.data       875191                       # number of overall MSHR misses
system.cpu.dcache.overall_mshr_misses::total       875191                       # number of overall MSHR misses
system.cpu.dcache.demand_mshr_miss_latency::.cpu.data  36907087000                       # number of demand (read+write) MSHR miss cycles
system.cpu.dcache.demand_mshr_miss_latency::total  36907087000                       # number of demand (read+write) MSHR miss cycles
system.cpu.dcache.overall_mshr_miss_latency::.cpu.data  37743779999                       # number of overall MSHR miss cycles
system.cpu.dcache.overall_mshr_miss_latency::total  37743779999                       # number of overall MSHR miss cycles
system.cpu.dcache.demand_mshr_miss_rate::.cpu.data     0.016658                       # mshr miss rate for demand accesses
system.cpu.dcache.demand_mshr_miss_rate::total     0.016658                       # mshr miss rate for demand accesses
system.cpu.dcache.overall_mshr_miss_rate::.cpu.data     0.016808                       # mshr miss rate for overall accesses
system.cpu.dcache.overall_mshr_miss_rate::total     0.016808                       # mshr miss rate for overall accesses
system.cpu.dcache.demand_avg_mshr_miss_latency::.cpu.data 42556.554757                       # average overall mshr miss latency
system.cpu.dcache.demand_avg_mshr_miss_latency::total 42556.554757                       # average overall mshr miss latency
system.cpu.dcache.overall_avg_mshr_miss_latency::.cpu.data 43126.334708                       # average overall mshr miss latency
system.cpu.dcache.overall_avg_mshr_miss_latency::total 43126.334708                       # average overall mshr miss latency
system.cpu.dcache.replacements                 874679                       # number of replacements
system.cpu.dcache.ReadReq_hits::.cpu.data     40585261                       # number of ReadReq hits
system.cpu.dcache.ReadReq_hits::total        40585261                       # number of ReadReq hits
system.cpu.dcache.ReadReq_misses::.cpu.data       526419                       # number of ReadReq misses
system.cpu.dcache.ReadReq_misses::total        526419                       # number of ReadReq misses
system.cpu.dcache.ReadReq_miss_latency::.cpu.data  18198116000                       # number of ReadReq miss cycles
system.cpu.dcache.ReadReq_miss_latency::total  18198116000                       # number of ReadReq miss cycles
system.cpu.dcache.ReadReq_accesses::.cpu.data     41111680                       # number of ReadReq accesses(hits+misses)
system.cpu.dcache.ReadReq_accesses::total     41111680                       # number of ReadReq accesses(hits+misses)
system.cpu.dcache.ReadReq_miss_rate::.cpu.data     0.012805                       # miss rate for ReadReq accesses
system.cpu.dcache.ReadReq_miss_rate::total     0.012805                       # miss rate for ReadReq accesses
system.cpu.dcache.ReadReq_avg_miss_latency::.cpu.data 34569.641293                       # average ReadReq miss latency
system.cpu.dcache.ReadReq_avg_miss_latency::total 34569.641293                       # average ReadReq miss latency
system.cpu.dcache.ReadReq_mshr_hits::.cpu.data          409                       # number of ReadReq MSHR hits
system.cpu.dcache.ReadReq_mshr_hits::total          409                       # number of ReadReq MSHR hits
system.cpu.dcache.ReadReq_mshr_misses::.cpu.data       526010                       # number of ReadReq MSHR misses
system.cpu.dcache.ReadReq_mshr_misses::total       526010                       # number of ReadReq MSHR misses
system.cpu.dcache.ReadReq_mshr_miss_latency::.cpu.data  17127919000                       # number of ReadReq MSHR miss cycles
system.cpu.dcache.ReadReq_mshr_miss_latency::total  17127919000                       # number of ReadReq MSHR miss cycles
system.cpu.dcache.ReadReq_mshr_miss_rate::.cpu.data     0.012795                       # mshr miss rate for ReadReq accesses
system.cpu.dcache.ReadReq_mshr_miss_rate::total     0.012795                       # mshr miss rate for ReadReq accesses
system.cpu.dcache.ReadReq_avg_mshr_miss_latency::.cpu.data 32561.964601                       # average ReadReq mshr miss latency
system.cpu.dcache.ReadReq_avg_mshr_miss_latency::total 32561.964601                       # average ReadReq mshr miss latency
system.cpu.dcache.WriteReq_hits::.cpu.data     10555069                       # number of WriteReq hits
system.cpu.dcache.WriteReq_hits::total       10555069                       # number of WriteReq hits
system.cpu.dcache.WriteReq_misses::.cpu.data       394013                       # number of WriteReq misses
system.cpu.dcache.WriteReq_misses::total       394013                       # number of WriteReq misses
system.cpu.dcache.WriteReq_miss_latency::.cpu.data  22014186000                       # number of WriteReq miss cycles
system.cpu.dcache.WriteReq_miss_latency::total  22014186000                       # number of WriteReq miss cycles
system.cpu.dcache.WriteReq_accesses::.cpu.data     10949082                       # number of WriteReq accesses(hits+misses)
system.cpu.dcache.WriteReq_accesses::total     10949082                       # number of WriteReq accesses(hits+misses)
system.cpu.dcache.WriteReq_miss_rate::.cpu.data     0.035986                       # miss rate for WriteReq accesses
system.cpu.dcache.WriteReq_miss_rate::total     0.035986                       # miss rate for WriteReq accesses
system.cpu.dcache.WriteReq_avg_miss_latency::.cpu.data 55871.725045                       # average WriteReq miss latency
system.cpu.dcache.WriteReq_avg_miss_latency::total 55871.725045                       # average WriteReq miss latency
system.cpu.dcache.WriteReq_mshr_hits::.cpu.data        52775                       # number of WriteReq MSHR hits
system.cpu.dcache.WriteReq_mshr_hits::total        52775                       # number of WriteReq MSHR hits
system.cpu.dcache.WriteReq_mshr_misses::.cpu.data       341238                       # number of WriteReq MSHR misses
system.cpu.dcache.WriteReq_mshr_misses::total       341238                       # number of WriteReq MSHR misses
system.cpu.dcache.WriteReq_mshr_miss_latency::.cpu.data  19779168000                       # number of WriteReq MSHR miss cycles
system.cpu.dcache.WriteReq_mshr_miss_latency::total  19779168000                       # number of WriteReq MSHR miss cycles
system.cpu.dcache.WriteReq_mshr_miss_rate::.cpu.data     0.031166                       # mshr miss rate for WriteReq accesses
system.cpu.dcache.WriteReq_mshr_miss_rate::total     0.031166                       # mshr miss rate for WriteReq accesses
system.cpu.dcache.WriteReq_avg_mshr_miss_latency::.cpu.data 57962.970126                       # average WriteReq mshr miss latency
system.cpu.dcache.WriteReq_avg_mshr_miss_latency::total 57962.970126                       # average WriteReq mshr miss latency
system.cpu.dcache.SoftPFReq_hits::.cpu.data          472                       # number of SoftPFReq hits
system.cpu.dcache.SoftPFReq_hits::total           472                       # number of SoftPFReq hits
system.cpu.dcache.SoftPFReq_misses::.cpu.data         7947                       # number of SoftPFReq misses
system.cpu.dcache.SoftPFReq_misses::total         7947                       # number of SoftPFReq misses
system.cpu.dcache.SoftPFReq_accesses::.cpu.data         8419                       # number of SoftPFReq accesses(hits+misses)
system.cpu.dcache.SoftPFReq_accesses::total         8419                       # number of SoftPFReq accesses(hits+misses)
system.cpu.dcache.SoftPFReq_miss_rate::.cpu.data     0.943936                       # miss rate for SoftPFReq accesses
system.cpu.dcache.SoftPFReq_miss_rate::total     0.943936                       # miss rate for SoftPFReq accesses
system.cpu.dcache.SoftPFReq_mshr_misses::.cpu.data         7943                       # number of SoftPFReq MSHR misses
system.cpu.dcache.SoftPFReq_mshr_misses::total         7943                       # number of SoftPFReq MSHR misses
system.cpu.dcache.SoftPFReq_mshr_miss_latency::.cpu.data    836692999                       # number of SoftPFReq MSHR miss cycles
system.cpu.dcache.SoftPFReq_mshr_miss_latency::total    836692999                       # number of SoftPFReq MSHR miss cycles
system.cpu.dcache.SoftPFReq_mshr_miss_rate::.cpu.data     0.943461                       # mshr miss rate for SoftPFReq accesses
system.cpu.dcache.SoftPFReq_mshr_miss_rate::total     0.943461                       # mshr miss rate for SoftPFReq accesses
system.cpu.dcache.SoftPFReq_avg_mshr_miss_latency::.cpu.data 105337.152084                       # average SoftPFReq mshr miss latency
system.cpu.dcache.SoftPFReq_avg_mshr_miss_latency::total 105337.152084                       # average SoftPFReq mshr miss latency
system.cpu.dcache.LoadLockedReq_hits::.cpu.data           38                       # number of LoadLockedReq hits
system.cpu.dcache.LoadLockedReq_hits::total           38                       # number of LoadLockedReq hits
system.cpu.dcache.LoadLockedReq_accesses::.cpu.data           38                       # number of LoadLockedReq accesses(hits+misses)
system.cpu.dcache.LoadLockedReq_accesses::total           38                       # number of LoadLockedReq accesses(hits+misses)
system.cpu.dcache.StoreCondReq_hits::.cpu.data           38                       # number of StoreCondReq hits
system.cpu.dcache.StoreCondReq_hits::total           38                       # number of StoreCondReq hits
system.cpu.dcache.StoreCondReq_accesses::.cpu.data           38                       # number of StoreCondReq accesses(hits+misses)
system.cpu.dcache.StoreCondReq_accesses::total           38                       # number of StoreCondReq accesses(hits+misses)
system.cpu.dcache.power_state.pwrStateResidencyTicks::UNDEFINED 163789862000                       # Cumulative time (in ticks) in various power states
system.cpu.dcache.tags.tagsinuse           507.430442                       # Cycle average of tags in use
system.cpu.dcache.tags.total_refs            52016069                       # Total number of references to valid blocks.
system.cpu.dcache.tags.sampled_refs            875191                       # Sample count of references to valid blocks.
system.cpu.dcache.tags.avg_refs             59.433962                       # Average number of references to valid blocks.
system.cpu.dcache.tags.warmup_cycle            223000                       # Cycle when the warmup percentage was hit.
system.cpu.dcache.tags.occ_blocks::.cpu.data   507.430442                       # Average occupied blocks per requestor
system.cpu.dcache.tags.occ_percent::.cpu.data     0.991075                       # Average percentage of cache occupancy
system.cpu.dcache.tags.occ_percent::total     0.991075                       # Average percentage of cache occupancy
system.cpu.dcache.tags.occ_task_id_blocks::1024          512                       # Occupied blocks per task id
system.cpu.dcache.tags.age_task_id_blocks_1024::0           32                       # Occupied blocks per task id
system.cpu.dcache.tags.age_task_id_blocks_1024::1          239                       # Occupied blocks per task id
system.cpu.dcache.tags.age_task_id_blocks_1024::2          240                       # Occupied blocks per task id
system.cpu.dcache.tags.age_task_id_blocks_1024::3            1                       # Occupied blocks per task id
system.cpu.dcache.tags.occ_task_id_percent::1024            1                       # Percentage of cache occupancy per task id
system.cpu.dcache.tags.tag_accesses         105013705                       # Number of tag accesses
system.cpu.dcache.tags.data_accesses        105013705                       # Number of data accesses
system.cpu.dcache.tags.power_state.pwrStateResidencyTicks::UNDEFINED 163789862000                       # Cumulative time (in ticks) in various power states
system.cpu.dtb.instHits                             0                       # ITB inst hits
system.cpu.dtb.instMisses                           0                       # ITB inst misses
system.cpu.dtb.readHits                             0                       # DTB read hits
system.cpu.dtb.readMisses                           0                       # DTB read misses
system.cpu.dtb.writeHits                            0                       # DTB write hits
system.cpu.dtb.writeMisses                          0                       # DTB write misses
system.cpu.dtb.inserts                              0                       # Number of times an entry is inserted into the TLB
system.cpu.dtb.flushTlb                             0                       # Number of times complete TLB was flushed
system.cpu.dtb.flushTlbMva                          0                       # Number of times TLB was flushed by MVA
system.cpu.dtb.flushTlbMvaAsid                      0                       # Number of times TLB was flushed by MVA & ASID
system.cpu.dtb.flushTlbAsid                         0                       # Number of times TLB was flushed by ASID
system.cpu.dtb.flushedEntries                       0                       # Number of entries that have been flushed from TLB
system.cpu.dtb.alignFaults                          0                       # Number of TLB faults due to alignment restrictions
system.cpu.dtb.prefetchFaults                       0                       # Number of TLB faults due to prefetch
system.cpu.dtb.domainFaults                         0                       # Number of TLB faults due to domain restrictions
system.cpu.dtb.permsFaults                          0                       # Number of TLB faults due to permissions restrictions
system.cpu.dtb.readAccesses                         0                       # DTB read accesses
system.cpu.dtb.writeAccesses                        0                       # DTB write accesses
system.cpu.dtb.instAccesses                         0                       # ITB inst accesses
system.cpu.dtb.hits                                 0                       # Total TLB (inst and data) hits
system.cpu.dtb.misses                               0                       # Total TLB (inst and data) misses
system.cpu.dtb.accesses                             0                       # Total TLB (inst and data) accesses
system.cpu.dtb.stage2_mmu.stage2_tlb.instHits            0                       # ITB inst hits
system.cpu.dtb.stage2_mmu.stage2_tlb.instMisses            0                       # ITB inst misses
system.cpu.dtb.stage2_mmu.stage2_tlb.readHits            0                       # DTB read hits
system.cpu.dtb.stage2_mmu.stage2_tlb.readMisses            0                       # DTB read misses
system.cpu.dtb.stage2_mmu.stage2_tlb.writeHits            0                       # DTB write hits
system.cpu.dtb.stage2_mmu.stage2_tlb.writeMisses            0                       # DTB write misses
system.cpu.dtb.stage2_mmu.stage2_tlb.inserts            0                       # Number of times an entry is inserted into the TLB
system.cpu.dtb.stage2_mmu.stage2_tlb.flushTlb            0                       # Number of times complete TLB was flushed
system.cpu.dtb.stage2_mmu.stage2_tlb.flushTlbMva            0                       # Number of times TLB was flushed by MVA
system.cpu.dtb.stage2_mmu.stage2_tlb.flushTlbMvaAsid            0                       # Number of times TLB was flushed by MVA & ASID
system.cpu.dtb.stage2_mmu.stage2_tlb.flushTlbAsid            0                       # Number of times TLB was flushed by ASID
system.cpu.dtb.stage2_mmu.stage2_tlb.flushedEntries            0                       # Number of entries that have been flushed from TLB
system.cpu.dtb.stage2_mmu.stage2_tlb.alignFaults            0                       # Number of TLB faults due to alignment restrictions
system.cpu.dtb.stage2_mmu.stage2_tlb.prefetchFaults            0                       # Number of TLB faults due to prefetch
system.cpu.dtb.stage2_mmu.stage2_tlb.domainFaults            0                       # Number of TLB faults due to domain restrictions
system.cpu.dtb.stage2_mmu.stage2_tlb.permsFaults            0                       # Number of TLB faults due to permissions restrictions
system.cpu.dtb.stage2_mmu.stage2_tlb.readAccesses            0                       # DTB read accesses
system.cpu.dtb.stage2_mmu.stage2_tlb.writeAccesses            0                       # DTB write accesses
system.cpu.dtb.stage2_mmu.stage2_tlb.instAccesses            0                       # ITB inst accesses
system.cpu.dtb.stage2_mmu.stage2_tlb.hits            0                       # Total TLB (inst and data) hits
system.cpu.dtb.stage2_mmu.stage2_tlb.misses            0                       # Total TLB (inst and data) misses
system.cpu.dtb.stage2_mmu.stage2_tlb.accesses            0                       # Total TLB (inst and data) accesses
system.cpu.dtb.stage2_mmu.stage2_tlb.walker.walks            0                       # Table walker walks requested
system.cpu.dtb.stage2_mmu.stage2_tlb.walker.requestOrigin_Requested::Data            0                       # Table walker requests started/completed, data/inst
system.cpu.dtb.stage2_mmu.stage2_tlb.walker.requestOrigin_Requested::Inst            0                       # Table walker requests started/completed, data/inst
system.cpu.dtb.stage2_mmu.stage2_tlb.walker.requestOrigin_Requested::total            0                       # Table walker requests started/completed, data/inst
system.cpu.dtb.stage2_mmu.stage2_tlb.walker.requestOrigin_Completed::Data            0                       # Table walker requests started/completed, data/inst
system.cpu.dtb.stage2_mmu.stage2_tlb.walker.requestOrigin_Completed::Inst            0                       # Table walker requests started/completed, data/inst
system.cpu.dtb.stage2_mmu.stage2_tlb.walker.requestOrigin_Completed::total            0                       # Table walker requests started/completed, data/inst
system.cpu.dtb.stage2_mmu.stage2_tlb.walker.requestOrigin::total            0                       # Table walker requests started/completed, data/inst
system.cpu.dtb.stage2_mmu.stage2_tlb.walker.power_state.pwrStateResidencyTicks::UNDEFINED 163789862000                       # Cumulative time (in ticks) in various power states
system.cpu.dtb.walker.walks                         0                       # Table walker walks requested
system.cpu.dtb.walker.requestOrigin_Requested::Data            0                       # Table walker requests started/completed, data/inst
system.cpu.dtb.walker.requestOrigin_Requested::Inst            0                       # Table walker requests started/completed, data/inst
system.cpu.dtb.walker.requestOrigin_Requested::total            0                       # Table walker requests started/completed, data/inst
system.cpu.dtb.walker.requestOrigin_Completed::Data            0                       # Table walker requests started/completed, data/inst
system.cpu.dtb.walker.requestOrigin_Completed::Inst            0                       # Table walker requests started/completed, data/inst
system.cpu.dtb.walker.requestOrigin_Completed::total            0                       # Table walker requests started/completed, data/inst
system.cpu.dtb.walker.requestOrigin::total            0                       # Table walker requests started/completed, data/inst
system.cpu.dtb.walker.power_state.pwrStateResidencyTicks::UNDEFINED 163789862000                       # Cumulative time (in ticks) in various power states
system.cpu.fetch2.intInstructions            42685856                       # Number of integer instructions successfully decoded
system.cpu.fetch2.fpInstructions                    0                       # Number of floating point instructions successfully decoded
system.cpu.fetch2.vecInstructions                   0                       # Number of SIMD instructions successfully decoded
system.cpu.fetch2.loadInstructions           43475087                       # Number of memory load instructions successfully decoded
system.cpu.fetch2.storeInstructions          11024931                       # Number of memory store instructions successfully decoded
system.cpu.fetch2.amoInstructions                   0                       # Number of memory atomic instructions successfully decoded
system.cpu.icache.demand_hits::.cpu.inst     10278094                       # number of demand (read+write) hits
system.cpu.icache.demand_hits::total         10278094                       # number of demand (read+write) hits
system.cpu.icache.overall_hits::.cpu.inst     10278094                       # number of overall hits
system.cpu.icache.overall_hits::total        10278094                       # number of overall hits
system.cpu.icache.demand_misses::.cpu.inst          773                       # number of demand (read+write) misses
system.cpu.icache.demand_misses::total            773                       # number of demand (read+write) misses
system.cpu.icache.overall_misses::.cpu.inst          773                       # number of overall misses
system.cpu.icache.overall_misses::total           773                       # number of overall misses
system.cpu.icache.demand_miss_latency::.cpu.inst     73524000                       # number of demand (read+write) miss cycles
system.cpu.icache.demand_miss_latency::total     73524000                       # number of demand (read+write) miss cycles
system.cpu.icache.overall_miss_latency::.cpu.inst     73524000                       # number of overall miss cycles
system.cpu.icache.overall_miss_latency::total     73524000                       # number of overall miss cycles
system.cpu.icache.demand_accesses::.cpu.inst     10278867                       # number of demand (read+write) accesses
system.cpu.icache.demand_accesses::total     10278867                       # number of demand (read+write) accesses
system.cpu.icache.overall_accesses::.cpu.inst     10278867                       # number of overall (read+write) accesses
system.cpu.icache.overall_accesses::total     10278867                       # number of overall (read+write) accesses
system.cpu.icache.demand_miss_rate::.cpu.inst     0.000075                       # miss rate for demand accesses
system.cpu.icache.demand_miss_rate::total     0.000075                       # miss rate for demand accesses
system.cpu.icache.overall_miss_rate::.cpu.inst     0.000075                       # miss rate for overall accesses
system.cpu.icache.overall_miss_rate::total     0.000075                       # miss rate for overall accesses
system.cpu.icache.demand_avg_miss_latency::.cpu.inst 95115.135834                       # average overall miss latency
system.cpu.icache.demand_avg_miss_latency::total 95115.135834                       # average overall miss latency
system.cpu.icache.overall_avg_miss_latency::.cpu.inst 95115.135834                       # average overall miss latency
system.cpu.icache.overall_avg_miss_latency::total 95115.135834                       # average overall miss latency
system.cpu.icache.blocked_cycles::no_mshrs            0                       # number of cycles access was blocked
system.cpu.icache.blocked_cycles::no_targets            0                       # number of cycles access was blocked
system.cpu.icache.blocked::no_mshrs                 0                       # number of cycles access was blocked
system.cpu.icache.blocked::no_targets               0                       # number of cycles access was blocked
system.cpu.icache.avg_blocked_cycles::no_mshrs          nan                       # average number of cycles each access was blocked
system.cpu.icache.avg_blocked_cycles::no_targets          nan                       # average number of cycles each access was blocked
system.cpu.icache.writebacks::.writebacks          333                       # number of writebacks
system.cpu.icache.writebacks::total               333                       # number of writebacks
system.cpu.icache.demand_mshr_misses::.cpu.inst          773                       # number of demand (read+write) MSHR misses
system.cpu.icache.demand_mshr_misses::total          773                       # number of demand (read+write) MSHR misses
system.cpu.icache.overall_mshr_misses::.cpu.inst          773                       # number of overall MSHR misses
system.cpu.icache.overall_mshr_misses::total          773                       # number of overall MSHR misses
system.cpu.icache.demand_mshr_miss_latency::.cpu.inst     71978000                       # number of demand (read+write) MSHR miss cycles
system.cpu.icache.demand_mshr_miss_latency::total     71978000                       # number of demand (read+write) MSHR miss cycles
system.cpu.icache.overall_mshr_miss_latency::.cpu.inst     71978000                       # number of overall MSHR miss cycles
system.cpu.icache.overall_mshr_miss_latency::total     71978000                       # number of overall MSHR miss cycles
system.cpu.icache.demand_mshr_miss_rate::.cpu.inst     0.000075                       # mshr miss rate for demand accesses
system.cpu.icache.demand_mshr_miss_rate::total     0.000075                       # mshr miss rate for demand accesses
system.cpu.icache.overall_mshr_miss_rate::.cpu.inst     0.000075                       # mshr miss rate for overall accesses
system.cpu.icache.overall_mshr_miss_rate::total     0.000075                       # mshr miss rate for overall accesses
system.cpu.icache.demand_avg_mshr_miss_latency::.cpu.inst 93115.135834                       # average overall mshr miss latency
system.cpu.icache.demand_avg_mshr_miss_latency::total 93115.135834                       # average overall mshr miss latency
system.cpu.icache.overall_avg_mshr_miss_latency::.cpu.inst 93115.135834                       # average overall mshr miss latency
system.cpu.icache.overall_avg_mshr_miss_latency::total 93115.135834                       # average overall mshr miss latency
system.cpu.icache.replacements                    333                       # number of replacements
system.cpu.icache.ReadReq_hits::.cpu.inst     10278094                       # number of ReadReq hits
system.cpu.icache.ReadReq_hits::total        10278094                       # number of ReadReq hits
system.cpu.icache.ReadReq_misses::.cpu.inst          773                       # number of ReadReq misses
system.cpu.icache.ReadReq_misses::total           773                       # number of ReadReq misses
system.cpu.icache.ReadReq_miss_latency::.cpu.inst     73524000                       # number of ReadReq miss cycles
system.cpu.icache.ReadReq_miss_latency::total     73524000                       # number of ReadReq miss cycles
system.cpu.icache.ReadReq_accesses::.cpu.inst     10278867                       # number of ReadReq accesses(hits+misses)
system.cpu.icache.ReadReq_accesses::total     10278867                       # number of ReadReq accesses(hits+misses)
system.cpu.icache.ReadReq_miss_rate::.cpu.inst     0.000075                       # miss rate for ReadReq accesses
system.cpu.icache.ReadReq_miss_rate::total     0.000075                       # miss rate for ReadReq accesses
system.cpu.icache.ReadReq_avg_miss_latency::.cpu.inst 95115.135834                       # average ReadReq miss latency
system.cpu.icache.ReadReq_avg_miss_latency::total 95115.135834                       # average ReadReq miss latency
system.cpu.icache.ReadReq_mshr_misses::.cpu.inst          773                       # number of ReadReq MSHR misses
system.cpu.icache.ReadReq_mshr_misses::total          773                       # number of ReadReq MSHR misses
system.cpu.icache.ReadReq_mshr_miss_latency::.cpu.inst     71978000                       # number of ReadReq MSHR miss cycles
system.cpu.icache.ReadReq_mshr_miss_latency::total     71978000                       # number of ReadReq MSHR miss cycles
system.cpu.icache.ReadReq_mshr_miss_rate::.cpu.inst     0.000075                       # mshr miss rate for ReadReq accesses
system.cpu.icache.ReadReq_mshr_miss_rate::total     0.000075                       # mshr miss rate for ReadReq accesses
system.cpu.icache.ReadReq_avg_mshr_miss_latency::.cpu.inst 93115.135834                       # average ReadReq mshr miss latency
system.cpu.icache.ReadReq_avg_mshr_miss_latency::total 93115.135834                       # average ReadReq mshr miss latency
system.cpu.icache.power_state.pwrStateResidencyTicks::UNDEFINED 163789862000                       # Cumulative time (in ticks) in various power states
system.cpu.icache.tags.tagsinuse           357.105358                       # Cycle average of tags in use
system.cpu.icache.tags.total_refs            10278867                       # Total number of references to valid blocks.
system.cpu.icache.tags.sampled_refs               773                       # Sample count of references to valid blocks.
system.cpu.icache.tags.avg_refs          13297.369987                       # Average number of references to valid blocks.
system.cpu.icache.tags.warmup_cycle            108000                       # Cycle when the warmup percentage was hit.
system.cpu.icache.tags.occ_blocks::.cpu.inst   357.105358                       # Average occupied blocks per requestor
system.cpu.icache.tags.occ_percent::.cpu.inst     0.697471                       # Average percentage of cache occupancy
system.cpu.icache.tags.occ_percent::total     0.697471                       # Average percentage of cache occupancy
system.cpu.icache.tags.occ_task_id_blocks::1024          440                       # Occupied blocks per task id
system.cpu.icache.tags.age_task_id_blocks_1024::4          440                       # Occupied blocks per task id
system.cpu.icache.tags.occ_task_id_percent::1024     0.859375                       # Percentage of cache occupancy per task id
system.cpu.icache.tags.tag_accesses          20558507                       # Number of tag accesses
system.cpu.icache.tags.data_accesses         20558507                       # Number of data accesses
system.cpu.icache.tags.power_state.pwrStateResidencyTicks::UNDEFINED 163789862000                       # Cumulative time (in ticks) in various power states
system.cpu.itb.instHits                             0                       # ITB inst hits
system.cpu.itb.instMisses                           0                       # ITB inst misses
system.cpu.itb.readHits                             0                       # DTB read hits
system.cpu.itb.readMisses                           0                       # DTB read misses
system.cpu.itb.writeHits                            0                       # DTB write hits
system.cpu.itb.writeMisses                          0                       # DTB write misses
system.cpu.itb.inserts                              0                       # Number of times an entry is inserted into the TLB
system.cpu.itb.flushTlb                             0                       # Number of times complete TLB was flushed
system.cpu.itb.flushTlbMva                          0                       # Number of times TLB was flushed by MVA
system.cpu.itb.flushTlbMvaAsid                      0                       # Number of times TLB was flushed by MVA & ASID
system.cpu.itb.flushTlbAsid                         0                       # Number of times TLB was flushed by ASID
system.cpu.itb.flushedEntries                       0                       # Number of entries that have been flushed from TLB
system.cpu.itb.alignFaults                          0                       # Number of TLB faults due to alignment restrictions
system.cpu.itb.prefetchFaults                       0                       # Number of TLB faults due to prefetch
system.cpu.itb.domainFaults                         0                       # Number of TLB faults due to domain restrictions
system.cpu.itb.permsFaults                          0                       # Number of TLB faults due to permissions restrictions
system.cpu.itb.readAccesses                         0                       # DTB read accesses
system.cpu.itb.writeAccesses                        0                       # DTB write accesses
system.cpu.itb.instAccesses                         0                       # ITB inst accesses
system.cpu.itb.hits                                 0                       # Total TLB (inst and data) hits
system.cpu.itb.misses                               0                       # Total TLB (inst and data) misses
system.cpu.itb.accesses                             0                       # Total TLB (inst and data) accesses
system.cpu.itb.stage2_mmu.stage2_tlb.instHits            0                       # ITB inst hits
system.cpu.itb.stage2_mmu.stage2_tlb.instMisses            0                       # ITB inst misses
system.cpu.itb.stage2_mmu.stage2_tlb.readHits            0                       # DTB read hits
system.cpu.itb.stage2_mmu.stage2_tlb.readMisses            0                       # DTB read misses
system.cpu.itb.stage2_mmu.stage2_tlb.writeHits            0                       # DTB write hits
system.cpu.itb.stage2_mmu.stage2_tlb.writeMisses            0                       # DTB write misses
system.cpu.itb.stage2_mmu.stage2_tlb.inserts            0                       # Number of times an entry is inserted into the TLB
system.cpu.itb.stage2_mmu.stage2_tlb.flushTlb            0                       # Number of times complete TLB was flushed
system.cpu.itb.stage2_mmu.stage2_tlb.flushTlbMva            0                       # Number of times TLB was flushed by MVA
system.cpu.itb.stage2_mmu.stage2_tlb.flushTlbMvaAsid            0                       # Number of times TLB was flushed by MVA & ASID
system.cpu.itb.stage2_mmu.stage2_tlb.flushTlbAsid            0                       # Number of times TLB was flushed by ASID
system.cpu.itb.stage2_mmu.stage2_tlb.flushedEntries            0                       # Number of entries that have been flushed from TLB
system.cpu.itb.stage2_mmu.stage2_tlb.alignFaults            0                       # Number of TLB faults due to alignment restrictions
system.cpu.itb.stage2_mmu.stage2_tlb.prefetchFaults            0                       # Number of TLB faults due to prefetch
system.cpu.itb.stage2_mmu.stage2_tlb.domainFaults            0                       # Number of TLB faults due to domain restrictions
system.cpu.itb.stage2_mmu.stage2_tlb.permsFaults            0                       # Number of TLB faults due to permissions restrictions
system.cpu.itb.stage2_mmu.stage2_tlb.readAccesses            0                       # DTB read accesses
system.cpu.itb.stage2_mmu.stage2_tlb.writeAccesses            0                       # DTB write accesses
system.cpu.itb.stage2_mmu.stage2_tlb.instAccesses            0                       # ITB inst accesses
system.cpu.itb.stage2_mmu.stage2_tlb.hits            0                       # Total TLB (inst and data) hits
system.cpu.itb.stage2_mmu.stage2_tlb.misses            0                       # Total TLB (inst and data) misses
system.cpu.itb.stage2_mmu.stage2_tlb.accesses            0                       # Total TLB (inst and data) accesses
system.cpu.itb.stage2_mmu.stage2_tlb.walker.walks            0                       # Table walker walks requested
system.cpu.itb.stage2_mmu.stage2_tlb.walker.requestOrigin_Requested::Data            0                       # Table walker requests started/completed, data/inst
system.cpu.itb.stage2_mmu.stage2_tlb.walker.requestOrigin_Requested::Inst            0                       # Table walker requests started/completed, data/inst
system.cpu.itb.stage2_mmu.stage2_tlb.walker.requestOrigin_Requested::total            0                       # Table walker requests started/completed, data/inst
system.cpu.itb.stage2_mmu.stage2_tlb.walker.requestOrigin_Completed::Data            0                       # Table walker requests started/completed, data/inst
system.cpu.itb.stage2_mmu.stage2_tlb.walker.requestOrigin_Completed::Inst            0                       # Table walker requests started/completed, data/inst
system.cpu.itb.stage2_mmu.stage2_tlb.walker.requestOrigin_Completed::total            0                       # Table walker requests started/completed, data/inst
system.cpu.itb.stage2_mmu.stage2_tlb.walker.requestOrigin::total            0                       # Table walker requests started/completed, data/inst
system.cpu.itb.stage2_mmu.stage2_tlb.walker.power_state.pwrStateResidencyTicks::UNDEFINED 163789862000                       # Cumulative time (in ticks) in various power states
system.cpu.itb.walker.walks                         0                       # Table walker walks requested
system.cpu.itb.walker.requestOrigin_Requested::Data            0                       # Table walker requests started/completed, data/inst
system.cpu.itb.walker.requestOrigin_Requested::Inst            0                       # Table walker requests started/completed, data/inst
system.cpu.itb.walker.requestOrigin_Requested::total            0                       # Table walker requests started/completed, data/inst
system.cpu.itb.walker.requestOrigin_Completed::Data            0                       # Table walker requests started/completed, data/inst
system.cpu.itb.walker.requestOrigin_Completed::Inst            0                       # Table walker requests started/completed, data/inst
system.cpu.itb.walker.requestOrigin_Completed::total            0                       # Table walker requests started/completed, data/inst
system.cpu.itb.walker.requestOrigin::total            0                       # Table walker requests started/completed, data/inst
system.cpu.itb.walker.power_state.pwrStateResidencyTicks::UNDEFINED 163789862000                       # Cumulative time (in ticks) in various power states
system.cpu.power_state.pwrStateResidencyTicks::ON 163789862000                       # Cumulative time (in ticks) in various power states
system.cpu.thread0.numInsts                 100000001                       # Number of Instructions committed
system.cpu.thread0.numOps                   100196356                       # Number of Ops committed
system.cpu.thread0.numMemRefs                       0                       # Number of Memory References
system.cpu_clk_domain.clock                      1000                       # Clock period in ticks
system.cpu_voltage_domain.voltage                   1                       # Voltage in Volts
system.l2.demand_hits::.cpu.inst                  102                       # number of demand (read+write) hits
system.l2.demand_hits::.cpu.data               674044                       # number of demand (read+write) hits
system.l2.demand_hits::total                   674146                       # number of demand (read+write) hits
system.l2.overall_hits::.cpu.inst                 102                       # number of overall hits
system.l2.overall_hits::.cpu.data              674044                       # number of overall hits
system.l2.overall_hits::total                  674146                       # number of overall hits
system.l2.demand_misses::.cpu.inst                671                       # number of demand (read+write) misses
system.l2.demand_misses::.cpu.data             201147                       # number of demand (read+write) misses
system.l2.demand_misses::total                 201818                       # number of demand (read+write) misses
system.l2.overall_misses::.cpu.inst               671                       # number of overall misses
system.l2.overall_misses::.cpu.data            201147                       # number of overall misses
system.l2.overall_misses::total                201818                       # number of overall misses
system.l2.demand_miss_latency::.cpu.inst     67477000                       # number of demand (read+write) miss cycles
system.l2.demand_miss_latency::.cpu.data  20938947000                       # number of demand (read+write) miss cycles
system.l2.demand_miss_latency::total      21006424000                       # number of demand (read+write) miss cycles
system.l2.overall_miss_latency::.cpu.inst     67477000                       # number of overall miss cycles
system.l2.overall_miss_latency::.cpu.data  20938947000                       # number of overall miss cycles
system.l2.overall_miss_latency::total     21006424000                       # number of overall miss cycles
system.l2.demand_accesses::.cpu.inst              773                       # number of demand (read+write) accesses
system.l2.demand_accesses::.cpu.data           875191                       # number of demand (read+write) accesses
system.l2.demand_accesses::total               875964                       # number of demand (read+write) accesses
system.l2.overall_accesses::.cpu.inst             773                       # number of overall (read+write) accesses
system.l2.overall_accesses::.cpu.data          875191                       # number of overall (read+write) accesses
system.l2.overall_accesses::total              875964                       # number of overall (read+write) accesses
system.l2.demand_miss_rate::.cpu.inst        0.868047                       # miss rate for demand accesses
system.l2.demand_miss_rate::.cpu.data        0.229832                       # miss rate for demand accesses
system.l2.demand_miss_rate::total            0.230395                       # miss rate for demand accesses
system.l2.overall_miss_rate::.cpu.inst       0.868047                       # miss rate for overall accesses
system.l2.overall_miss_rate::.cpu.data       0.229832                       # miss rate for overall accesses
system.l2.overall_miss_rate::total           0.230395                       # miss rate for overall accesses
system.l2.demand_avg_miss_latency::.cpu.inst 100561.847988                       # average overall miss latency
system.l2.demand_avg_miss_latency::.cpu.data 104097.734493                       # average overall miss latency
system.l2.demand_avg_miss_latency::total 104085.978456                       # average overall miss latency
system.l2.overall_avg_miss_latency::.cpu.inst 100561.847988                       # average overall miss latency
system.l2.overall_avg_miss_latency::.cpu.data 104097.734493                       # average overall miss latency
system.l2.overall_avg_miss_latency::total 104085.978456                       # average overall miss latency
system.l2.blocked_cycles::no_mshrs                  0                       # number of cycles access was blocked
system.l2.blocked_cycles::no_targets                0                       # number of cycles access was blocked
system.l2.blocked::no_mshrs                         0                       # number of cycles access was blocked
system.l2.blocked::no_targets                       0                       # number of cycles access was blocked
system.l2.avg_blocked_cycles::no_mshrs            nan                       # average number of cycles each access was blocked
system.l2.avg_blocked_cycles::no_targets          nan                       # average number of cycles each access was blocked
system.l2.writebacks::.writebacks              111032                       # number of writebacks
system.l2.writebacks::total                    111032                       # number of writebacks
system.l2.demand_mshr_hits::.cpu.data               6                       # number of demand (read+write) MSHR hits
system.l2.demand_mshr_hits::total                   6                       # number of demand (read+write) MSHR hits
system.l2.overall_mshr_hits::.cpu.data              6                       # number of overall MSHR hits
system.l2.overall_mshr_hits::total                  6                       # number of overall MSHR hits
system.l2.demand_mshr_misses::.cpu.inst           671                       # number of demand (read+write) MSHR misses
system.l2.demand_mshr_misses::.cpu.data        201141                       # number of demand (read+write) MSHR misses
system.l2.demand_mshr_misses::total            201812                       # number of demand (read+write) MSHR misses
system.l2.overall_mshr_misses::.cpu.inst          671                       # number of overall MSHR misses
system.l2.overall_mshr_misses::.cpu.data       201141                       # number of overall MSHR misses
system.l2.overall_mshr_misses::total           201812                       # number of overall MSHR misses
system.l2.demand_mshr_miss_latency::.cpu.inst     54057000                       # number of demand (read+write) MSHR miss cycles
system.l2.demand_mshr_miss_latency::.cpu.data  16915667000                       # number of demand (read+write) MSHR miss cycles
system.l2.demand_mshr_miss_latency::total  16969724000                       # number of demand (read+write) MSHR miss cycles
system.l2.overall_mshr_miss_latency::.cpu.inst     54057000                       # number of overall MSHR miss cycles
system.l2.overall_mshr_miss_latency::.cpu.data  16915667000                       # number of overall MSHR miss cycles
system.l2.overall_mshr_miss_latency::total  16969724000                       # number of overall MSHR miss cycles
system.l2.demand_mshr_miss_rate::.cpu.inst     0.868047                       # mshr miss rate for demand accesses
system.l2.demand_mshr_miss_rate::.cpu.data     0.229825                       # mshr miss rate for demand accesses
system.l2.demand_mshr_miss_rate::total       0.230388                       # mshr miss rate for demand accesses
system.l2.overall_mshr_miss_rate::.cpu.inst     0.868047                       # mshr miss rate for overall accesses
system.l2.overall_mshr_miss_rate::.cpu.data     0.229825                       # mshr miss rate for overall accesses
system.l2.overall_mshr_miss_rate::total      0.230388                       # mshr miss rate for overall accesses
system.l2.demand_avg_mshr_miss_latency::.cpu.inst 80561.847988                       # average overall mshr miss latency
system.l2.demand_avg_mshr_miss_latency::.cpu.data 84098.552757                       # average overall mshr miss latency
system.l2.demand_avg_mshr_miss_latency::total 84086.793650                       # average overall mshr miss latency
system.l2.overall_avg_mshr_miss_latency::.cpu.inst 80561.847988                       # average overall mshr miss latency
system.l2.overall_avg_mshr_miss_latency::.cpu.data 84098.552757                       # average overall mshr miss latency
system.l2.overall_avg_mshr_miss_latency::total 84086.793650                       # average overall mshr miss latency
system.l2.replacements                         169175                       # number of replacements
system.l2.WritebackDirty_hits::.writebacks       796020                       # number of WritebackDirty hits
system.l2.WritebackDirty_hits::total           796020                       # number of WritebackDirty hits
system.l2.WritebackDirty_accesses::.writebacks       796020                       # number of WritebackDirty accesses(hits+misses)
system.l2.WritebackDirty_accesses::total       796020                       # number of WritebackDirty accesses(hits+misses)
system.l2.WritebackClean_hits::.writebacks          324                       # number of WritebackClean hits
system.l2.WritebackClean_hits::total              324                       # number of WritebackClean hits
system.l2.WritebackClean_accesses::.writebacks          324                       # number of WritebackClean accesses(hits+misses)
system.l2.WritebackClean_accesses::total          324                       # number of WritebackClean accesses(hits+misses)
system.l2.ReadExReq_hits::.cpu.data            205155                       # number of ReadExReq hits
system.l2.ReadExReq_hits::total                205155                       # number of ReadExReq hits
system.l2.ReadExReq_misses::.cpu.data          136083                       # number of ReadExReq misses
system.l2.ReadExReq_misses::total              136083                       # number of ReadExReq misses
system.l2.ReadExReq_miss_latency::.cpu.data  14434975000                       # number of ReadExReq miss cycles
system.l2.ReadExReq_miss_latency::total   14434975000                       # number of ReadExReq miss cycles
system.l2.ReadExReq_accesses::.cpu.data        341238                       # number of ReadExReq accesses(hits+misses)
system.l2.ReadExReq_accesses::total            341238                       # number of ReadExReq accesses(hits+misses)
system.l2.ReadExReq_miss_rate::.cpu.data     0.398792                       # miss rate for ReadExReq accesses
system.l2.ReadExReq_miss_rate::total         0.398792                       # miss rate for ReadExReq accesses
system.l2.ReadExReq_avg_miss_latency::.cpu.data 106074.785241                       # average ReadExReq miss latency
system.l2.ReadExReq_avg_miss_latency::total 106074.785241                       # average ReadExReq miss latency
system.l2.ReadExReq_mshr_misses::.cpu.data       136083                       # number of ReadExReq MSHR misses
system.l2.ReadExReq_mshr_misses::total         136083                       # number of ReadExReq MSHR misses
system.l2.ReadExReq_mshr_miss_latency::.cpu.data  11713315000                       # number of ReadExReq MSHR miss cycles
system.l2.ReadExReq_mshr_miss_latency::total  11713315000                       # number of ReadExReq MSHR miss cycles
system.l2.ReadExReq_mshr_miss_rate::.cpu.data     0.398792                       # mshr miss rate for ReadExReq accesses
system.l2.ReadExReq_mshr_miss_rate::total     0.398792                       # mshr miss rate for ReadExReq accesses
system.l2.ReadExReq_avg_mshr_miss_latency::.cpu.data 86074.785241                       # average ReadExReq mshr miss latency
system.l2.ReadExReq_avg_mshr_miss_latency::total 86074.785241                       # average ReadExReq mshr miss latency
system.l2.ReadCleanReq_hits::.cpu.inst            102                       # number of ReadCleanReq hits
system.l2.ReadCleanReq_hits::total                102                       # number of ReadCleanReq hits
system.l2.ReadCleanReq_misses::.cpu.inst          671                       # number of ReadCleanReq misses
system.l2.ReadCleanReq_misses::total              671                       # number of ReadCleanReq misses
system.l2.ReadCleanReq_miss_latency::.cpu.inst     67477000                       # number of ReadCleanReq miss cycles
system.l2.ReadCleanReq_miss_latency::total     67477000                       # number of ReadCleanReq miss cycles
system.l2.ReadCleanReq_accesses::.cpu.inst          773                       # number of ReadCleanReq accesses(hits+misses)
system.l2.ReadCleanReq_accesses::total            773                       # number of ReadCleanReq accesses(hits+misses)
system.l2.ReadCleanReq_miss_rate::.cpu.inst     0.868047                       # miss rate for ReadCleanReq accesses
system.l2.ReadCleanReq_miss_rate::total      0.868047                       # miss rate for ReadCleanReq accesses
system.l2.ReadCleanReq_avg_miss_latency::.cpu.inst 100561.847988                       # average ReadCleanReq miss latency
system.l2.ReadCleanReq_avg_miss_latency::total 100561.847988                       # average ReadCleanReq miss latency
system.l2.ReadCleanReq_mshr_misses::.cpu.inst          671                       # number of ReadCleanReq MSHR misses
system.l2.ReadCleanReq_mshr_misses::total          671                       # number of ReadCleanReq MSHR misses
system.l2.ReadCleanReq_mshr_miss_latency::.cpu.inst     54057000                       # number of ReadCleanReq MSHR miss cycles
system.l2.ReadCleanReq_mshr_miss_latency::total     54057000                       # number of ReadCleanReq MSHR miss cycles
system.l2.ReadCleanReq_mshr_miss_rate::.cpu.inst     0.868047                       # mshr miss rate for ReadCleanReq accesses
system.l2.ReadCleanReq_mshr_miss_rate::total     0.868047                       # mshr miss rate for ReadCleanReq accesses
system.l2.ReadCleanReq_avg_mshr_miss_latency::.cpu.inst 80561.847988                       # average ReadCleanReq mshr miss latency
system.l2.ReadCleanReq_avg_mshr_miss_latency::total 80561.847988                       # average ReadCleanReq mshr miss latency
system.l2.ReadSharedReq_hits::.cpu.data        468889                       # number of ReadSharedReq hits
system.l2.ReadSharedReq_hits::total            468889                       # number of ReadSharedReq hits
system.l2.ReadSharedReq_misses::.cpu.data        65064                       # number of ReadSharedReq misses
system.l2.ReadSharedReq_misses::total           65064                       # number of ReadSharedReq misses
system.l2.ReadSharedReq_miss_latency::.cpu.data   6503972000                       # number of ReadSharedReq miss cycles
system.l2.ReadSharedReq_miss_latency::total   6503972000                       # number of ReadSharedReq miss cycles
system.l2.ReadSharedReq_accesses::.cpu.data       533953                       # number of ReadSharedReq accesses(hits+misses)
system.l2.ReadSharedReq_accesses::total        533953                       # number of ReadSharedReq accesses(hits+misses)
system.l2.ReadSharedReq_miss_rate::.cpu.data     0.121853                       # miss rate for ReadSharedReq accesses
system.l2.ReadSharedReq_miss_rate::total     0.121853                       # miss rate for ReadSharedReq accesses
system.l2.ReadSharedReq_avg_miss_latency::.cpu.data 99962.682897                       # average ReadSharedReq miss latency
system.l2.ReadSharedReq_avg_miss_latency::total 99962.682897                       # average ReadSharedReq miss latency
system.l2.ReadSharedReq_mshr_hits::.cpu.data            6                       # number of ReadSharedReq MSHR hits
system.l2.ReadSharedReq_mshr_hits::total            6                       # number of ReadSharedReq MSHR hits
system.l2.ReadSharedReq_mshr_misses::.cpu.data        65058                       # number of ReadSharedReq MSHR misses
system.l2.ReadSharedReq_mshr_misses::total        65058                       # number of ReadSharedReq MSHR misses
system.l2.ReadSharedReq_mshr_miss_latency::.cpu.data   5202352000                       # number of ReadSharedReq MSHR miss cycles
system.l2.ReadSharedReq_mshr_miss_latency::total   5202352000                       # number of ReadSharedReq MSHR miss cycles
system.l2.ReadSharedReq_mshr_miss_rate::.cpu.data     0.121842                       # mshr miss rate for ReadSharedReq accesses
system.l2.ReadSharedReq_mshr_miss_rate::total     0.121842                       # mshr miss rate for ReadSharedReq accesses
system.l2.ReadSharedReq_avg_mshr_miss_latency::.cpu.data 79964.831381                       # average ReadSharedReq mshr miss latency
system.l2.ReadSharedReq_avg_mshr_miss_latency::total 79964.831381                       # average ReadSharedReq mshr miss latency
system.l2.power_state.pwrStateResidencyTicks::UNDEFINED 163789862000                       # Cumulative time (in ticks) in various power states
system.l2.tags.tagsinuse                 32160.358655                       # Cycle average of tags in use
system.l2.tags.total_refs                     1750590                       # Total number of references to valid blocks.
system.l2.tags.sampled_refs                    201943                       # Sample count of references to valid blocks.
system.l2.tags.avg_refs                      8.668733                       # Average number of references to valid blocks.
system.l2.tags.warmup_cycle                     87000                       # Cycle when the warmup percentage was hit.
system.l2.tags.occ_blocks::.writebacks      49.276243                       # Average occupied blocks per requestor
system.l2.tags.occ_blocks::.cpu.inst        84.335459                       # Average occupied blocks per requestor
system.l2.tags.occ_blocks::.cpu.data     32026.746954                       # Average occupied blocks per requestor
system.l2.tags.occ_percent::.writebacks      0.001504                       # Average percentage of cache occupancy
system.l2.tags.occ_percent::.cpu.inst        0.002574                       # Average percentage of cache occupancy
system.l2.tags.occ_percent::.cpu.data        0.977379                       # Average percentage of cache occupancy
system.l2.tags.occ_percent::total            0.981456                       # Average percentage of cache occupancy
system.l2.tags.occ_task_id_blocks::1024         32768                       # Occupied blocks per task id
system.l2.tags.age_task_id_blocks_1024::1           19                       # Occupied blocks per task id
system.l2.tags.age_task_id_blocks_1024::2          613                       # Occupied blocks per task id
system.l2.tags.age_task_id_blocks_1024::3         8341                       # Occupied blocks per task id
system.l2.tags.age_task_id_blocks_1024::4        23795                       # Occupied blocks per task id
system.l2.tags.occ_task_id_percent::1024            1                       # Percentage of cache occupancy per task id
system.l2.tags.tag_accesses                  14206711                       # Number of tag accesses
system.l2.tags.data_accesses                 14206711                       # Number of data accesses
system.l2.tags.power_state.pwrStateResidencyTicks::UNDEFINED 163789862000                       # Cumulative time (in ticks) in various power states
system.mem_ctrls.avgPriority_.writebacks::samples    111032.00                       # Average QoS priority value for accepted requests
system.mem_ctrls.avgPriority_.cpu.inst::samples       671.00                       # Average QoS priority value for accepted requests
system.mem_ctrls.avgPriority_.cpu.data::samples    201118.00                       # Average QoS priority value for accepted requests
system.mem_ctrls.priorityMinLatency      0.000000018750                       # per QoS priority minimum request to response latency (s)
system.mem_ctrls.priorityMaxLatency      0.007251500500                       # per QoS priority maximum request to response latency (s)
system.mem_ctrls.numReadWriteTurnArounds         6612                       # Number of turnarounds from READ to WRITE
system.mem_ctrls.numWriteReadTurnArounds         6612                       # Number of turnarounds from WRITE to READ
system.mem_ctrls.numStayReadState              547721                       # Number of times bus staying in READ state
system.mem_ctrls.numStayWriteState             104528                       # Number of times bus staying in WRITE state
system.mem_ctrls.readReqs                      201812                       # Number of read requests accepted
system.mem_ctrls.writeReqs                     111032                       # Number of write requests accepted
system.mem_ctrls.readBursts                    201812                       # Number of controller read bursts, including those serviced by the write queue
system.mem_ctrls.writeBursts                   111032                       # Number of controller write bursts, including those merged in the write queue
system.mem_ctrls.servicedByWrQ                     23                       # Number of controller read bursts serviced by the write queue
system.mem_ctrls.mergedWrBursts                     0                       # Number of controller write bursts merged with an existing one
system.mem_ctrls.neitherReadNorWriteReqs            0                       # Number of requests that are neither read nor write
system.mem_ctrls.avgRdQLen                       1.04                       # Average read queue length when enqueuing
system.mem_ctrls.avgWrQLen                      24.75                       # Average write queue length when enqueuing
system.mem_ctrls.numRdRetry                         0                       # Number of times read queue was full causing retry
system.mem_ctrls.numWrRetry                         0                       # Number of times write queue was full causing retry
system.mem_ctrls.readPktSize::0                     0                       # Read request sizes (log2)
system.mem_ctrls.readPktSize::1                     0                       # Read request sizes (log2)
system.mem_ctrls.readPktSize::2                     0                       # Read request sizes (log2)
system.mem_ctrls.readPktSize::3                     0                       # Read request sizes (log2)
system.mem_ctrls.readPktSize::4                     0                       # Read request sizes (log2)
system.mem_ctrls.readPktSize::5                     0                       # Read request sizes (log2)
system.mem_ctrls.readPktSize::6                201812                       # Read request sizes (log2)
system.mem_ctrls.writePktSize::0                    0                       # Write request sizes (log2)
system.mem_ctrls.writePktSize::1                    0                       # Write request sizes (log2)
system.mem_ctrls.writePktSize::2                    0                       # Write request sizes (log2)
system.mem_ctrls.writePktSize::3                    0                       # Write request sizes (log2)
system.mem_ctrls.writePktSize::4                    0                       # Write request sizes (log2)
system.mem_ctrls.writePktSize::5                    0                       # Write request sizes (log2)
system.mem_ctrls.writePktSize::6               111032                       # Write request sizes (log2)
system.mem_ctrls.rdQLenPdf::0                  152899                       # What read queue length does an incoming req see
system.mem_ctrls.rdQLenPdf::1                   48403                       # What read queue length does an incoming req see
system.mem_ctrls.rdQLenPdf::2                     298                       # What read queue length does an incoming req see
system.mem_ctrls.rdQLenPdf::3                     188                       # What read queue length does an incoming req see
system.mem_ctrls.rdQLenPdf::4                       1                       # What read queue length does an incoming req see
system.mem_ctrls.rdQLenPdf::5                       0                       # What read queue length does an incoming req see
system.mem_ctrls.rdQLenPdf::6                       0                       # What read queue length does an incoming req see
system.mem_ctrls.rdQLenPdf::7                       0                       # What read queue length does an incoming req see
system.mem_ctrls.rdQLenPdf::8                       0                       # What read queue length does an incoming req see
system.mem_ctrls.rdQLenPdf::9                       0                       # What read queue length does an incoming req see
system.mem_ctrls.rdQLenPdf::10                      0                       # What read queue length does an incoming req see
system.mem_ctrls.rdQLenPdf::11                      0                       # What read queue length does an incoming req see
system.mem_ctrls.rdQLenPdf::12                      0                       # What read queue length does an incoming req see
[...]
system.mem_ctrls.dram.bw_write::.writebacks     43385152                       # Write bandwidth from this memory (bytes/s)
system.mem_ctrls.dram.bw_write::total        43385152                       # Write bandwidth from this memory (bytes/s)
system.mem_ctrls.dram.bw_total::.writebacks     43385152                       # Total bandwidth to/from this memory (bytes/s)
system.mem_ctrls.dram.bw_total::.cpu.inst       262190                       # Total bandwidth to/from this memory (bytes/s)
system.mem_ctrls.dram.bw_total::.cpu.data     78594755                       # Total bandwidth to/from this memory (bytes/s)
system.mem_ctrls.dram.bw_total::total       122242096                       # Total bandwidth to/from this memory (bytes/s)
system.mem_ctrls.dram.readBursts               201789                       # Number of DRAM read bursts
system.mem_ctrls.dram.writeBursts              111008                       # Number of DRAM write bursts
system.mem_ctrls.dram.perBankRdBursts::0        12906                       # Per bank write bursts
system.mem_ctrls.dram.perBankRdBursts::1        12868                       # Per bank write bursts
system.mem_ctrls.dram.perBankRdBursts::2        12785                       # Per bank write bursts
system.mem_ctrls.dram.perBankRdBursts::3        12533                       # Per bank write bursts
system.mem_ctrls.dram.perBankRdBursts::4        12594                       # Per bank write bursts
system.mem_ctrls.dram.perBankRdBursts::5        12356                       # Per bank write bursts
system.mem_ctrls.dram.perBankRdBursts::6        12588                       # Per bank write bursts
system.mem_ctrls.dram.perBankRdBursts::7        12370                       # Per bank write bursts
system.mem_ctrls.dram.perBankRdBursts::8        12462                       # Per bank write bursts
system.mem_ctrls.dram.perBankRdBursts::9        12125                       # Per bank write bursts
system.mem_ctrls.dram.perBankRdBursts::10        12588                       # Per bank write bursts
system.mem_ctrls.dram.perBankRdBursts::11        12639                       # Per bank write bursts
system.mem_ctrls.dram.perBankRdBursts::12        12775                       # Per bank write bursts
system.mem_ctrls.dram.perBankRdBursts::13        12737                       # Per bank write bursts
system.mem_ctrls.dram.perBankRdBursts::14        12791                       # Per bank write bursts
system.mem_ctrls.dram.perBankRdBursts::15        12672                       # Per bank write bursts
system.mem_ctrls.dram.perBankWrBursts::0         7056                       # Per bank write bursts
system.mem_ctrls.dram.perBankWrBursts::1         7147                       # Per bank write bursts
system.mem_ctrls.dram.perBankWrBursts::2         7055                       # Per bank write bursts
system.mem_ctrls.dram.perBankWrBursts::3         6943                       # Per bank write bursts
system.mem_ctrls.dram.perBankWrBursts::4         7009                       # Per bank write bursts
system.mem_ctrls.dram.perBankWrBursts::5         6936                       # Per bank write bursts
system.mem_ctrls.dram.perBankWrBursts::6         7117                       # Per bank write bursts
system.mem_ctrls.dram.perBankWrBursts::7         6841                       # Per bank write bursts
system.mem_ctrls.dram.perBankWrBursts::8         6787                       # Per bank write bursts
system.mem_ctrls.dram.perBankWrBursts::9         6485                       # Per bank write bursts
system.mem_ctrls.dram.perBankWrBursts::10         6879                       # Per bank write bursts
system.mem_ctrls.dram.perBankWrBursts::11         6910                       # Per bank write bursts
system.mem_ctrls.dram.perBankWrBursts::12         6995                       # Per bank write bursts
system.mem_ctrls.dram.perBankWrBursts::13         6930                       # Per bank write bursts
system.mem_ctrls.dram.perBankWrBursts::14         6996                       # Per bank write bursts
system.mem_ctrls.dram.perBankWrBursts::15         6922                       # Per bank write bursts
system.mem_ctrls.dram.totQLat              2807283250                       # Total ticks spent queuing
system.mem_ctrls.dram.totBusLat            1008945000                       # Total ticks spent in databus transfers
system.mem_ctrls.dram.totMemAccLat         6590827000                       # Total ticks spent from burst creation until serviced by the DRAM
system.mem_ctrls.dram.avgQLat                13911.97                       # Average queueing delay per DRAM burst
system.mem_ctrls.dram.avgBusLat               5000.00                       # Average bus latency per DRAM burst
system.mem_ctrls.dram.avgMemAccLat           32661.97                       # Average memory access latency per DRAM burst
system.mem_ctrls.dram.readRowHits              132183                       # Number of row buffer hits during reads
system.mem_ctrls.dram.writeRowHits              69784                       # Number of row buffer hits during writes
system.mem_ctrls.dram.readRowHitRate            65.51                       # Row buffer hit rate for reads
system.mem_ctrls.dram.writeRowHitRate           62.86                       # Row buffer hit rate for writes
system.mem_ctrls.dram.bytesPerActivate::samples       110830                       # Bytes accessed per row activation
system.mem_ctrls.dram.bytesPerActivate::mean   180.628061                       # Bytes accessed per row activation
system.mem_ctrls.dram.bytesPerActivate::gmean   107.201660                       # Bytes accessed per row activation
system.mem_ctrls.dram.bytesPerActivate::stdev   245.279942                       # Bytes accessed per row activation
system.mem_ctrls.dram.bytesPerActivate::0-127        76467     68.99%     68.99% # Bytes accessed per row activation
system.mem_ctrls.dram.bytesPerActivate::128-255        11973     10.80%     79.80% # Bytes accessed per row activation
system.mem_ctrls.dram.bytesPerActivate::256-383         5266      4.75%     84.55% # Bytes accessed per row activation
system.mem_ctrls.dram.bytesPerActivate::384-511         1316      1.19%     85.74% # Bytes accessed per row activation
system.mem_ctrls.dram.bytesPerActivate::512-639         8789      7.93%     93.67% # Bytes accessed per row activation
system.mem_ctrls.dram.bytesPerActivate::640-767          697      0.63%     94.30% # Bytes accessed per row activation
system.mem_ctrls.dram.bytesPerActivate::768-895          401      0.36%     94.66% # Bytes accessed per row activation
system.mem_ctrls.dram.bytesPerActivate::896-1023          430      0.39%     95.05% # Bytes accessed per row activation
system.mem_ctrls.dram.bytesPerActivate::1024-1151         5491      4.95%    100.00% # Bytes accessed per row activation
system.mem_ctrls.dram.bytesPerActivate::total       110830                       # Bytes accessed per row activation
system.mem_ctrls.dram.bytesRead              12914496                       # Total number of bytes read from DRAM
system.mem_ctrls.dram.bytesWritten            7104512                       # Total number of bytes written to DRAM
system.mem_ctrls.dram.avgRdBW               78.847957                       # Average DRAM read bandwidth in MiBytes/s
system.mem_ctrls.dram.avgWrBW               43.375774                       # Average DRAM write bandwidth in MiBytes/s
system.mem_ctrls.dram.peakBW                 12800.00                       # Theoretical peak bandwidth in MiByte/s
system.mem_ctrls.dram.busUtil                    0.95                       # Data bus utilization in percentage
system.mem_ctrls.dram.busUtilRead                0.62                       # Data bus utilization in percentage for reads
system.mem_ctrls.dram.busUtilWrite               0.34                       # Data bus utilization in percentage for writes
system.mem_ctrls.dram.pageHitRate               64.57                       # Row buffer hit rate, read and write combined
system.mem_ctrls.dram.power_state.pwrStateResidencyTicks::UNDEFINED 163789862000                       # Cumulative time (in ticks) in various power states
system.mem_ctrls.dram.rank0.actEnergy       398419140                       # Energy for activate commands per rank (pJ)
system.mem_ctrls.dram.rank0.preEnergy       211764795                       # Energy for precharge commands per rank (pJ)
system.mem_ctrls.dram.rank0.readEnergy      721140000                       # Energy for read commands per rank (pJ)
system.mem_ctrls.dram.rank0.writeEnergy     292862880                       # Energy for write commands per rank (pJ)
system.mem_ctrls.dram.rank0.refreshEnergy 12928952400.000002                       # Energy for refresh commands per rank (pJ)
system.mem_ctrls.dram.rank0.actBackEnergy  33730918500                       # Energy for active background per rank (pJ)
system.mem_ctrls.dram.rank0.preBackEnergy  34490323200                       # Energy for precharge background per rank (pJ)
system.mem_ctrls.dram.rank0.actPowerDownEnergy            0                       # Energy for active power-down per rank (pJ)
system.mem_ctrls.dram.rank0.prePowerDownEnergy            0                       # Energy for precharge power-down per rank (pJ)
system.mem_ctrls.dram.rank0.selfRefreshEnergy            0                       # Energy for self refresh per rank (pJ)
system.mem_ctrls.dram.rank0.totalEnergy   82774380915                       # Total energy per rank (pJ)
system.mem_ctrls.dram.rank0.averagePower   505.369379                       # Core power per rank (mW)
system.mem_ctrls.dram.rank0.totalIdleTime            0                       # Total Idle time Per DRAM Rank
system.mem_ctrls.dram.rank0.pwrStateTime::IDLE  89312650000                       # Time in different power states
system.mem_ctrls.dram.rank0.pwrStateTime::REF   5469100000                       # Time in different power states
system.mem_ctrls.dram.rank0.pwrStateTime::SREF            0                       # Time in different power states
system.mem_ctrls.dram.rank0.pwrStateTime::PRE_PDN            0                       # Time in different power states
system.mem_ctrls.dram.rank0.pwrStateTime::ACT  69008112000                       # Time in different power states
system.mem_ctrls.dram.rank0.pwrStateTime::ACT_PDN            0                       # Time in different power states
system.mem_ctrls.dram.rank1.actEnergy       392907060                       # Energy for activate commands per rank (pJ)
system.mem_ctrls.dram.rank1.preEnergy       208835055                       # Energy for precharge commands per rank (pJ)
system.mem_ctrls.dram.rank1.readEnergy      719633460                       # Energy for read commands per rank (pJ)
system.mem_ctrls.dram.rank1.writeEnergy     286598880                       # Energy for write commands per rank (pJ)
system.mem_ctrls.dram.rank1.refreshEnergy 12928952400.000002                       # Energy for refresh commands per rank (pJ)
system.mem_ctrls.dram.rank1.actBackEnergy  33383318820                       # Energy for active background per rank (pJ)
system.mem_ctrls.dram.rank1.preBackEnergy  34783038720                       # Energy for precharge background per rank (pJ)
system.mem_ctrls.dram.rank1.actPowerDownEnergy            0                       # Energy for active power-down per rank (pJ)
system.mem_ctrls.dram.rank1.prePowerDownEnergy            0                       # Energy for precharge power-down per rank (pJ)
system.mem_ctrls.dram.rank1.selfRefreshEnergy            0                       # Energy for self refresh per rank (pJ)
system.mem_ctrls.dram.rank1.totalEnergy   82703284395                       # Total energy per rank (pJ)
system.mem_ctrls.dram.rank1.averagePower   504.935308                       # Core power per rank (mW)
system.mem_ctrls.dram.rank1.totalIdleTime            0                       # Total Idle time Per DRAM Rank
system.mem_ctrls.dram.rank1.pwrStateTime::IDLE  90077557500                       # Time in different power states
system.mem_ctrls.dram.rank1.pwrStateTime::REF   5469100000                       # Time in different power states
system.mem_ctrls.dram.rank1.pwrStateTime::SREF            0                       # Time in different power states
system.mem_ctrls.dram.rank1.pwrStateTime::PRE_PDN            0                       # Time in different power states
system.mem_ctrls.dram.rank1.pwrStateTime::ACT  68243204500                       # Time in different power states
system.mem_ctrls.dram.rank1.pwrStateTime::ACT_PDN            0                       # Time in different power states
system.mem_ctrls.power_state.pwrStateResidencyTicks::UNDEFINED 163789862000                       # Cumulative time (in ticks) in various power states
system.membus.trans_dist::ReadResp              65729                       # Transaction distribution
system.membus.trans_dist::WritebackDirty       111032                       # Transaction distribution
system.membus.trans_dist::CleanEvict            57674                       # Transaction distribution
system.membus.trans_dist::ReadExReq            136083                       # Transaction distribution
system.membus.trans_dist::ReadExResp           136083                       # Transaction distribution
system.membus.trans_dist::ReadSharedReq         65729                       # Transaction distribution
system.membus.pkt_count_system.l2.mem_side_port::system.mem_ctrls.port       572330                       # Packet count per connected requestor and responder (bytes)
system.membus.pkt_count::total                 572330                       # Packet count per connected requestor and responder (bytes)
system.membus.pkt_size_system.l2.mem_side_port::system.mem_ctrls.port     20022016                       # Cumulative packet size per connected requestor and responder (bytes)
system.membus.pkt_size::total                20022016                       # Cumulative packet size per connected requestor and responder (bytes)
system.membus.snoops                                0                       # Total snoops (count)
system.membus.snoopTraffic                          0                       # Total snoop traffic (bytes)
system.membus.snoop_fanout::samples            201812                       # Request fanout histogram
system.membus.snoop_fanout::mean                    0                       # Request fanout histogram
system.membus.snoop_fanout::stdev                   0                       # Request fanout histogram
system.membus.snoop_fanout::underflows              0      0.00%      0.00% # Request fanout histogram
system.membus.snoop_fanout::0                  201812    100.00%    100.00% # Request fanout histogram
system.membus.snoop_fanout::1                       0      0.00%    100.00% # Request fanout histogram
system.membus.snoop_fanout::overflows               0      0.00%    100.00% # Request fanout histogram
system.membus.snoop_fanout::min_value               0                       # Request fanout histogram
system.membus.snoop_fanout::max_value               0                       # Request fanout histogram
system.membus.snoop_fanout::total              201812                       # Request fanout histogram
system.membus.power_state.pwrStateResidencyTicks::UNDEFINED 163789862000                       # Cumulative time (in ticks) in various power states
system.membus.reqLayer0.occupancy           814646000                       # Layer occupancy (ticks)
system.membus.reqLayer0.utilization               0.5                       # Layer utilization (%)
system.membus.respLayer1.occupancy         1090770500                       # Layer occupancy (ticks)
system.membus.respLayer1.utilization              0.7                       # Layer utilization (%)
system.tol2bus.trans_dist::ReadResp            534726                       # Transaction distribution
system.tol2bus.trans_dist::WritebackDirty       907052                       # Transaction distribution
system.tol2bus.trans_dist::WritebackClean          333                       # Transaction distribution
system.tol2bus.trans_dist::CleanEvict          136802                       # Transaction distribution
system.tol2bus.trans_dist::ReadExReq           341238                       # Transaction distribution
system.tol2bus.trans_dist::ReadExResp          341238                       # Transaction distribution
system.tol2bus.trans_dist::ReadCleanReq           773                       # Transaction distribution
system.tol2bus.trans_dist::ReadSharedReq       533953                       # Transaction distribution
system.tol2bus.pkt_count_system.cpu.icache.mem_side_port::system.l2.cpu_side_port         1879                       # Packet count per connected requestor and responder (bytes)
system.tol2bus.pkt_count_system.cpu.dcache.mem_side_port::system.l2.cpu_side_port      2625061                       # Packet count per connected requestor and responder (bytes)
system.tol2bus.pkt_count::total               2626940                       # Packet count per connected requestor and responder (bytes)
system.tol2bus.pkt_size_system.cpu.icache.mem_side_port::system.l2.cpu_side_port        70784                       # Cumulative packet size per connected requestor and responder (bytes)
system.tol2bus.pkt_size_system.cpu.dcache.mem_side_port::system.l2.cpu_side_port    106957504                       # Cumulative packet size per connected requestor and responder (bytes)
system.tol2bus.pkt_size::total              107028288                       # Cumulative packet size per connected requestor and responder (bytes)
system.tol2bus.snoops                          169175                       # Total snoops (count)
system.tol2bus.snoopTraffic                   7106048                       # Total snoop traffic (bytes)
system.tol2bus.snoop_fanout::samples          1045139                       # Request fanout histogram
system.tol2bus.snoop_fanout::mean            0.000813                       # Request fanout histogram
system.tol2bus.snoop_fanout::stdev           0.028507                       # Request fanout histogram
system.tol2bus.snoop_fanout::underflows             0      0.00%      0.00% # Request fanout histogram
system.tol2bus.snoop_fanout::0                1044289     99.92%     99.92% # Request fanout histogram
system.tol2bus.snoop_fanout::1                    850      0.08%    100.00% # Request fanout histogram
system.tol2bus.snoop_fanout::2                      0      0.00%    100.00% # Request fanout histogram
system.tol2bus.snoop_fanout::overflows              0      0.00%    100.00% # Request fanout histogram
system.tol2bus.snoop_fanout::min_value              0                       # Request fanout histogram
system.tol2bus.snoop_fanout::max_value              1                       # Request fanout histogram
system.tol2bus.snoop_fanout::total            1045139                       # Request fanout histogram
system.tol2bus.power_state.pwrStateResidencyTicks::UNDEFINED 163789862000                       # Cumulative time (in ticks) in various power states
system.tol2bus.reqLayer0.occupancy         3343682000                       # Layer occupancy (ticks)
system.tol2bus.reqLayer0.utilization              2.0                       # Layer utilization (%)
system.tol2bus.respLayer0.occupancy           2319000                       # Layer occupancy (ticks)
system.tol2bus.respLayer0.utilization             0.0                       # Layer utilization (%)
system.tol2bus.respLayer1.occupancy        2625578994                       # Layer occupancy (ticks)
system.tol2bus.respLayer1.utilization             1.6                       # Layer utilization (%)
system.voltage_domain.voltage                       1                       # Voltage in Volts

---------- End Simulation Statistics   ----------
