
---------- Begin Simulation Statistics ----------
final_tick                                   67363000                       # Number of ticks from beginning of simulation (restored from checkpoints and never reset)
host_inst_rate                                 114199                       # Simulator instruction rate (inst/s)
host_mem_usage                                 656328                       # Number of bytes of host memory used
host_op_rate                                   131160                       # Simulator op (including micro ops) rate (op/s)
host_seconds                                     0.09                       # Real time elapsed on the host
host_tick_rate                              759627232                       # Simulator tick rate (ticks/s)
sim_freq                                 1000000000000                       # Frequency of simulated ticks
sim_insts                                       10100                       # Number of instructions simulated
sim_ops                                         11626                       # Number of ops (including micro ops) simulated
sim_seconds                                  0.000067                       # Number of seconds simulated
sim_ticks                                    67363000                       # Number of ticks simulated
system.cpu.committedInsts                       10100                       # Number of instructions committed
system.cpu.committedOps                         11626                       # Number of ops (including micro ops) committed
system.cpu.cpi                               6.669604                       # CPI: cycles per instruction
system.cpu.discardedOps                          2001                       # Number of ops (including micro ops) which were discarded before commit
system.cpu.idleCycles                           47855                       # Total number of cycles that the object has spent stopped
system.cpu.ipc                               0.149934                       # IPC: instructions per cycle
system.cpu.numCycles                            67363                       # number of cpu cycles simulated
system.cpu.numFetchSuspends                         0                       # Number of times Execute suspended instruction fetching
system.cpu.numWorkItemsCompleted                    0                       # number of work items this cpu completed
system.cpu.numWorkItemsStarted                      0                       # number of work items this cpu started
system.cpu.op_class_0::No_OpClass                   0      0.00%      0.00% # Class of committed instruction
system.cpu.op_class_0::IntAlu                    8044     69.19%     69.19% # Class of committed instruction
system.cpu.op_class_0::IntMult                     62      0.53%     69.72% # Class of committed instruction
system.cpu.op_class_0::IntDiv                       0      0.00%     69.72% # Class of committed instruction
system.cpu.op_class_0::FloatAdd                     0      0.00%     69.72% # Class of committed instruction
system.cpu.op_class_0::FloatCmp                     0      0.00%     69.72% # Class of committed instruction
system.cpu.op_class_0::FloatCvt                     0      0.00%     69.72% # Class of committed instruction
system.cpu.op_class_0::FloatMult                    0      0.00%     69.72% # Class of committed instruction
system.cpu.op_class_0::FloatMultAcc                 0      0.00%     69.72% # Class of committed instruction
system.cpu.op_class_0::FloatDiv                     0      0.00%     69.72% # Class of committed instruction
system.cpu.op_class_0::FloatMisc                    0      0.00%     69.72% # Class of committed instruction
system.cpu.op_class_0::FloatSqrt                    0      0.00%     69.72% # Class of committed instruction
system.cpu.op_class_0::SimdAdd                      0      0.00%     69.72% # Class of committed instruction
system.cpu.op_class_0::SimdAddAcc                   0      0.00%     69.72% # Class of committed instruction
system.cpu.op_class_0::SimdAlu                      0      0.00%     69.72% # Class of committed instruction
system.cpu.op_class_0::SimdCmp                      0      0.00%     69.72% # Class of committed instruction
system.cpu.op_class_0::SimdCvt                      0      0.00%     69.72% # Class of committed instruction
system.cpu.op_class_0::SimdMisc                     0      0.00%     69.72% # Class of committed instruction
system.cpu.op_class_0::SimdMult                     0      0.00%     69.72% # Class of committed instruction
system.cpu.op_class_0::SimdMultAcc                  0      0.00%     69.72% # Class of committed instruction
system.cpu.op_class_0::SimdShift                    0      0.00%     69.72% # Class of committed instruction
system.cpu.op_class_0::SimdShiftAcc                 0      0.00%     69.72% # Class of committed instruction
system.cpu.op_class_0::SimdDiv                      0      0.00%     69.72% # Class of committed instruction
system.cpu.op_class_0::SimdSqrt                     0      0.00%     69.72% # Class of committed instruction
system.cpu.op_class_0::SimdFloatAdd                 0      0.00%     69.72% # Class of committed instruction
system.cpu.op_class_0::SimdFloatAlu                 0      0.00%     69.72% # Class of committed instruction
system.cpu.op_class_0::SimdFloatCmp                 0      0.00%     69.72% # Class of committed instruction
system.cpu.op_class_0::SimdFloatCvt                 0      0.00%     69.72% # Class of committed instruction
system.cpu.op_class_0::SimdFloatDiv                 0      0.00%     69.72% # Class of committed instruction
system.cpu.op_class_0::SimdFloatMisc               21      0.18%     69.90% # Class of committed instruction
system.cpu.op_class_0::SimdFloatMult                0      0.00%     69.90% # Class of committed instruction
system.cpu.op_class_0::SimdFloatMultAcc             0      0.00%     69.90% # Class of committed instruction
system.cpu.op_class_0::SimdFloatSqrt                0      0.00%     69.90% # Class of committed instruction
system.cpu.op_class_0::SimdReduceAdd                0      0.00%     69.90% # Class of committed instruction
system.cpu.op_class_0::SimdReduceAlu                0      0.00%     69.90% # Class of committed instruction
system.cpu.op_class_0::SimdReduceCmp                0      0.00%     69.90% # Class of committed instruction
system.cpu.op_class_0::SimdFloatReduceAdd            0      0.00%     69.90% # Class of committed instruction
system.cpu.op_class_0::SimdFloatReduceCmp            0      0.00%     69.90% # Class of committed instruction
system.cpu.op_class_0::SimdAes                      0      0.00%     69.90% # Class of committed instruction
system.cpu.op_class_0::SimdAesMix                   0      0.00%     69.90% # Class of committed instruction
system.cpu.op_class_0::SimdSha1Hash                 0      0.00%     69.90% # Class of committed instruction
system.cpu.op_class_0::SimdSha1Hash2                0      0.00%     69.90% # Class of committed instruction
system.cpu.op_class_0::SimdSha256Hash               0      0.00%     69.90% # Class of committed instruction
system.cpu.op_class_0::SimdSha256Hash2              0      0.00%     69.90% # Class of committed instruction
system.cpu.op_class_0::SimdShaSigma2                0      0.00%     69.90% # Class of committed instruction
system.cpu.op_class_0::SimdShaSigma3                0      0.00%     69.90% # Class of committed instruction
system.cpu.op_class_0::SimdPredAlu                  0      0.00%     69.90% # Class of committed instruction
system.cpu.op_class_0::MemRead                   1757     15.11%     85.02% # Class of committed instruction
system.cpu.op_class_0::MemWrite                  1742     14.98%    100.00% # Class of committed instruction
system.cpu.op_class_0::FloatMemRead                 0      0.00%    100.00% # Class of committed instruction
system.cpu.op_class_0::FloatMemWrite                0      0.00%    100.00% # Class of committed instruction
system.cpu.op_class_0::IprAccess                    0      0.00%    100.00% # Class of committed instruction
system.cpu.op_class_0::InstPrefetch                 0      0.00%    100.00% # Class of committed instruction
system.cpu.op_class_0::total                    11626                       # Class of committed instruction
system.cpu.tickCycles                           19508                       # Number of cycles that the object actually ticked
system.cpu.workload.numSyscalls                    12                       # Number of system calls
system.membus.snoop_filter.hit_multi_requests            0                       # Number of requests hitting in the snoop filter with multiple (>1) holders of the requested data.
system.membus.snoop_filter.hit_multi_snoops            0                       # Number of snoops hitting in the snoop filter with multiple (>1) holders of the requested data.
system.membus.snoop_filter.hit_single_requests            0                       # Number of requests hitting in the snoop filter with a single holder of the requested data.
system.membus.snoop_filter.hit_single_snoops            0                       # Number of snoops hitting in the snoop filter with a single holder of the requested data.
system.membus.snoop_filter.tot_requests           623                       # Total number of requests made to the snoop filter.
system.membus.snoop_filter.tot_snoops               0                       # Total number of snoops made to the snoop filter.
system.tol2bus.snoop_filter.hit_multi_requests            6                       # Number of requests hitting in the snoop filter with multiple (>1) holders of the requested data.
system.tol2bus.snoop_filter.hit_multi_snoops            0                       # Number of snoops hitting in the snoop filter with multiple (>1) holders of the requested data.
system.tol2bus.snoop_filter.hit_single_requests           58                       # Number of requests hitting in the snoop filter with a single holder of the requested data.
system.tol2bus.snoop_filter.hit_single_snoops            0                       # Number of snoops hitting in the snoop filter with a single holder of the requested data.
system.tol2bus.snoop_filter.tot_requests          691                       # Total number of requests made to the snoop filter.
system.tol2bus.snoop_filter.tot_snoops              0                       # Total number of snoops made to the snoop filter.
system.clk_domain.clock                          1000                       # Clock period in ticks
system.cpu.branchPred.lookups                    3312                       # Number of BP lookups
system.cpu.branchPred.condPredicted              2145                       # Number of conditional branches predicted
system.cpu.branchPred.condIncorrect               612                       # Number of conditional branches incorrect
system.cpu.branchPred.BTBLookups                 1686                       # Number of BTB lookups
system.cpu.branchPred.BTBHits                     698                       # Number of BTB hits
system.cpu.branchPred.BTBHitPct             41.399763                       # BTB Hit Percentage
system.cpu.branchPred.RASUsed                     275                       # Number of times the RAS was used to get a target.
system.cpu.branchPred.RASIncorrect                  1                       # Number of incorrect RAS predictions.
system.cpu.branchPred.indirectLookups             155                       # Number of indirect predictor lookups.
system.cpu.branchPred.indirectHits                 14                       # Number of indirect target hits.
system.cpu.branchPred.indirectMisses              141                       # Number of indirect misses.
system.cpu.branchPred.indirectMispredicted           67                       # Number of mispredicted indirect branches.
system.cpu.dcache.demand_hits::.cpu.data         3401                       # number of demand (read+write) hits
system.cpu.dcache.demand_hits::total             3401                       # number of demand (read+write) hits
system.cpu.dcache.overall_hits::.cpu.data         3428                       # number of overall hits
system.cpu.dcache.overall_hits::total            3428                       # number of overall hits
system.cpu.dcache.demand_misses::.cpu.data          260                       # number of demand (read+write) misses
system.cpu.dcache.demand_misses::total            260                       # number of demand (read+write) misses
system.cpu.dcache.overall_misses::.cpu.data          282                       # number of overall misses
system.cpu.dcache.overall_misses::total           282                       # number of overall misses
system.cpu.dcache.demand_miss_latency::.cpu.data     25982000                       # number of demand (read+write) miss cycles
system.cpu.dcache.demand_miss_latency::total     25982000                       # number of demand (read+write) miss cycles
system.cpu.dcache.overall_miss_latency::.cpu.data     25982000                       # number of overall miss cycles
system.cpu.dcache.overall_miss_latency::total     25982000                       # number of overall miss cycles
system.cpu.dcache.demand_accesses::.cpu.data         3661                       # number of demand (read+write) accesses
system.cpu.dcache.demand_accesses::total         3661                       # number of demand (read+write) accesses
system.cpu.dcache.overall_accesses::.cpu.data         3710                       # number of overall (read+write) accesses
system.cpu.dcache.overall_accesses::total         3710                       # number of overall (read+write) accesses
system.cpu.dcache.demand_miss_rate::.cpu.data     0.071019                       # miss rate for demand accesses
system.cpu.dcache.demand_miss_rate::total     0.071019                       # miss rate for demand accesses
system.cpu.dcache.overall_miss_rate::.cpu.data     0.076011                       # miss rate for overall accesses
system.cpu.dcache.overall_miss_rate::total     0.076011                       # miss rate for overall accesses
system.cpu.dcache.demand_avg_miss_latency::.cpu.data 99930.769231                       # average overall miss latency
system.cpu.dcache.demand_avg_miss_latency::total 99930.769231                       # average overall miss latency
system.cpu.dcache.overall_avg_miss_latency::.cpu.data 92134.751773                       # average overall miss latency
system.cpu.dcache.overall_avg_miss_latency::total 92134.751773                       # average overall miss latency
system.cpu.dcache.blocked_cycles::no_mshrs            0                       # number of cycles access was blocked
system.cpu.dcache.blocked_cycles::no_targets            0                       # number of cycles access was blocked
system.cpu.dcache.blocked::no_mshrs                 0                       # number of cycles access was blocked
system.cpu.dcache.blocked::no_targets               0                       # number of cycles access was blocked
system.cpu.dcache.avg_blocked_cycles::no_mshrs          nan                       # average number of cycles each access was blocked
system.cpu.dcache.avg_blocked_cycles::no_targets          nan                       # average number of cycles each access was blocked
system.cpu.dcache.writebacks::.writebacks            4                       # number of writebacks
system.cpu.dcache.writebacks::total                 4                       # number of writebacks
system.cpu.dcache.demand_mshr_hits::.cpu.data           63                       # number of demand (read+write) MSHR hits
system.cpu.dcache.demand_mshr_hits::total           63                       # number of demand (read+write) MSHR hits
system.cpu.dcache.overall_mshr_hits::.cpu.data           63                       # number of overall MSHR hits
system.cpu.dcache.overall_mshr_hits::total           63                       # number of overall MSHR hits
system.cpu.dcache.demand_mshr_misses::.cpu.data          197                       # number of demand (read+write) MSHR misses
system.cpu.dcache.demand_mshr_misses::total          197                       # number of demand (read+write) MSHR misses
system.cpu.dcache.overall_mshr_misses::.cpu.data          212                       # number of overall MSHR misses
system.cpu.dcache.overall_mshr_misses::total          212                       # number of overall MSHR misses
system.cpu.dcache.demand_mshr_miss_latency::.cpu.data     19577000                       # number of demand (read+write) MSHR miss cycles
system.cpu.dcache.demand_mshr_miss_latency::total     19577000                       # number of demand (read+write) MSHR miss cycles
system.cpu.dcache.overall_mshr_miss_latency::.cpu.data     21029000                       # number of overall MSHR miss cycles
system.cpu.dcache.overall_mshr_miss_latency::total     21029000                       # number of overall MSHR miss cycles
system.cpu.dcache.demand_mshr_miss_rate::.cpu.data     0.053810                       # mshr miss rate for demand accesses
system.cpu.dcache.demand_mshr_miss_rate::total     0.053810                       # mshr miss rate for demand accesses
system.cpu.dcache.overall_mshr_miss_rate::.cpu.data     0.057143                       # mshr miss rate for overall accesses
system.cpu.dcache.overall_mshr_miss_rate::total     0.057143                       # mshr miss rate for overall accesses
system.cpu.dcache.demand_avg_mshr_miss_latency::.cpu.data 99375.634518                       # average overall mshr miss latency
system.cpu.dcache.demand_avg_mshr_miss_latency::total 99375.634518                       # average overall mshr miss latency
system.cpu.dcache.overall_avg_mshr_miss_latency::.cpu.data 99193.396226                       # average overall mshr miss latency
system.cpu.dcache.overall_avg_mshr_miss_latency::total 99193.396226                       # average overall mshr miss latency
system.cpu.dcache.replacements                     13                       # number of replacements
system.cpu.dcache.ReadReq_hits::.cpu.data         1846                       # number of ReadReq hits
system.cpu.dcache.ReadReq_hits::total            1846                       # number of ReadReq hits
system.cpu.dcache.ReadReq_misses::.cpu.data          123                       # number of ReadReq misses
system.cpu.dcache.ReadReq_misses::total           123                       # number of ReadReq misses
system.cpu.dcache.ReadReq_miss_latency::.cpu.data     12017000                       # number of ReadReq miss cycles
system.cpu.dcache.ReadReq_miss_latency::total     12017000                       # number of ReadReq miss cycles
system.cpu.dcache.ReadReq_accesses::.cpu.data         1969                       # number of ReadReq accesses(hits+misses)
system.cpu.dcache.ReadReq_accesses::total         1969                       # number of ReadReq accesses(hits+misses)
system.cpu.dcache.ReadReq_miss_rate::.cpu.data     0.062468                       # miss rate for ReadReq accesses
system.cpu.dcache.ReadReq_miss_rate::total     0.062468                       # miss rate for ReadReq accesses
system.cpu.dcache.ReadReq_avg_miss_latency::.cpu.data 97699.186992                       # average ReadReq miss latency
system.cpu.dcache.ReadReq_avg_miss_latency::total 97699.186992                       # average ReadReq miss latency
system.cpu.dcache.ReadReq_mshr_hits::.cpu.data            6                       # number of ReadReq MSHR hits
system.cpu.dcache.ReadReq_mshr_hits::total            6                       # number of ReadReq MSHR hits
system.cpu.dcache.ReadReq_mshr_misses::.cpu.data          117                       # number of ReadReq MSHR misses
system.cpu.dcache.ReadReq_mshr_misses::total          117                       # number of ReadReq MSHR misses
system.cpu.dcache.ReadReq_mshr_miss_latency::.cpu.data     11302000                       # number of ReadReq MSHR miss cycles
system.cpu.dcache.ReadReq_mshr_miss_latency::total     11302000                       # number of ReadReq MSHR miss cycles
system.cpu.dcache.ReadReq_mshr_miss_rate::.cpu.data     0.059421                       # mshr miss rate for ReadReq accesses
system.cpu.dcache.ReadReq_mshr_miss_rate::total     0.059421                       # mshr miss rate for ReadReq accesses
system.cpu.dcache.ReadReq_avg_mshr_miss_latency::.cpu.data 96598.290598                       # average ReadReq mshr miss latency
system.cpu.dcache.ReadReq_avg_mshr_miss_latency::total 96598.290598                       # average ReadReq mshr miss latency
system.cpu.dcache.WriteReq_hits::.cpu.data         1555                       # number of WriteReq hits
system.cpu.dcache.WriteReq_hits::total           1555                       # number of WriteReq hits
system.cpu.dcache.WriteReq_misses::.cpu.data          137                       # number of WriteReq misses
system.cpu.dcache.WriteReq_misses::total          137                       # number of WriteReq misses
system.cpu.dcache.WriteReq_miss_latency::.cpu.data     13965000                       # number of WriteReq miss cycles
system.cpu.dcache.WriteReq_miss_latency::total     13965000                       # number of WriteReq miss cycles
system.cpu.dcache.WriteReq_accesses::.cpu.data         1692                       # number of WriteReq accesses(hits+misses)
system.cpu.dcache.WriteReq_accesses::total         1692                       # number of WriteReq accesses(hits+misses)
system.cpu.dcache.WriteReq_miss_rate::.cpu.data     0.080969                       # miss rate for WriteReq accesses
system.cpu.dcache.WriteReq_miss_rate::total     0.080969                       # miss rate for WriteReq accesses
system.cpu.dcache.WriteReq_avg_miss_latency::.cpu.data 101934.306569                       # average WriteReq miss latency
system.cpu.dcache.WriteReq_avg_miss_latency::total 101934.306569                       # average WriteReq miss latency
system.cpu.dcache.WriteReq_mshr_hits::.cpu.data           57                       # number of WriteReq MSHR hits
system.cpu.dcache.WriteReq_mshr_hits::total           57                       # number of WriteReq MSHR hits
system.cpu.dcache.WriteReq_mshr_misses::.cpu.data           80                       # number of WriteReq MSHR misses
system.cpu.dcache.WriteReq_mshr_misses::total           80                       # number of WriteReq MSHR misses
system.cpu.dcache.WriteReq_mshr_miss_latency::.cpu.data      8275000                       # number of WriteReq MSHR miss cycles
system.cpu.dcache.WriteReq_mshr_miss_latency::total      8275000                       # number of WriteReq MSHR miss cycles
system.cpu.dcache.WriteReq_mshr_miss_rate::.cpu.data     0.047281                       # mshr miss rate for WriteReq accesses
system.cpu.dcache.WriteReq_mshr_miss_rate::total     0.047281                       # mshr miss rate for WriteReq accesses
system.cpu.dcache.WriteReq_avg_mshr_miss_latency::.cpu.data 103437.500000                       # average WriteReq mshr miss latency
system.cpu.dcache.WriteReq_avg_mshr_miss_latency::total 103437.500000                       # average WriteReq mshr miss latency
system.cpu.dcache.SoftPFReq_hits::.cpu.data           27                       # number of SoftPFReq hits
system.cpu.dcache.SoftPFReq_hits::total            27                       # number of SoftPFReq hits
system.cpu.dcache.SoftPFReq_misses::.cpu.data           22                       # number of SoftPFReq misses
system.cpu.dcache.SoftPFReq_misses::total           22                       # number of SoftPFReq misses
system.cpu.dcache.SoftPFReq_accesses::.cpu.data           49                       # number of SoftPFReq accesses(hits+misses)
system.cpu.dcache.SoftPFReq_accesses::total           49                       # number of SoftPFReq accesses(hits+misses)
system.cpu.dcache.SoftPFReq_miss_rate::.cpu.data     0.448980                       # miss rate for SoftPFReq accesses
system.cpu.dcache.SoftPFReq_miss_rate::total     0.448980                       # miss rate for SoftPFReq accesses
system.cpu.dcache.SoftPFReq_mshr_misses::.cpu.data           15                       # number of SoftPFReq MSHR misses
system.cpu.dcache.SoftPFReq_mshr_misses::total           15                       # number of SoftPFReq MSHR misses
system.cpu.dcache.SoftPFReq_mshr_miss_latency::.cpu.data      1452000                       # number of SoftPFReq MSHR miss cycles
system.cpu.dcache.SoftPFReq_mshr_miss_latency::total      1452000                       # number of SoftPFReq MSHR miss cycles
system.cpu.dcache.SoftPFReq_mshr_miss_rate::.cpu.data     0.306122                       # mshr miss rate for SoftPFReq accesses
system.cpu.dcache.SoftPFReq_mshr_miss_rate::total     0.306122                       # mshr miss rate for SoftPFReq accesses
system.cpu.dcache.SoftPFReq_avg_mshr_miss_latency::.cpu.data        96800                       # average SoftPFReq mshr miss latency
system.cpu.dcache.SoftPFReq_avg_mshr_miss_latency::total        96800                       # average SoftPFReq mshr miss latency
system.cpu.dcache.LoadLockedReq_hits::.cpu.data           19                       # number of LoadLockedReq hits
system.cpu.dcache.LoadLockedReq_hits::total           19                       # number of LoadLockedReq hits
system.cpu.dcache.LoadLockedReq_misses::.cpu.data            1                       # number of LoadLockedReq misses
system.cpu.dcache.LoadLockedReq_misses::total            1                       # number of LoadLockedReq misses
system.cpu.dcache.LoadLockedReq_miss_latency::.cpu.data        95000                       # number of LoadLockedReq miss cycles
system.cpu.dcache.LoadLockedReq_miss_latency::total        95000                       # number of LoadLockedReq miss cycles
system.cpu.dcache.LoadLockedReq_accesses::.cpu.data           20                       # number of LoadLockedReq accesses(hits+misses)
system.cpu.dcache.LoadLockedReq_accesses::total           20                       # number of LoadLockedReq accesses(hits+misses)
system.cpu.dcache.LoadLockedReq_miss_rate::.cpu.data     0.050000                       # miss rate for LoadLockedReq accesses
system.cpu.dcache.LoadLockedReq_miss_rate::total     0.050000                       # miss rate for LoadLockedReq accesses
system.cpu.dcache.LoadLockedReq_avg_miss_latency::.cpu.data        95000                       # average LoadLockedReq miss latency
system.cpu.dcache.LoadLockedReq_avg_miss_latency::total        95000                       # average LoadLockedReq miss latency
system.cpu.dcache.LoadLockedReq_mshr_misses::.cpu.data            1                       # number of LoadLockedReq MSHR misses
system.cpu.dcache.LoadLockedReq_mshr_misses::total            1                       # number of LoadLockedReq MSHR misses
system.cpu.dcache.LoadLockedReq_mshr_miss_latency::.cpu.data        93000                       # number of LoadLockedReq MSHR miss cycles
system.cpu.dcache.LoadLockedReq_mshr_miss_latency::total        93000                       # number of LoadLockedReq MSHR miss cycles
system.cpu.dcache.LoadLockedReq_mshr_miss_rate::.cpu.data     0.050000                       # mshr miss rate for LoadLockedReq accesses
system.cpu.dcache.LoadLockedReq_mshr_miss_rate::total     0.050000                       # mshr miss rate for LoadLockedReq accesses
system.cpu.dcache.LoadLockedReq_avg_mshr_miss_latency::.cpu.data        93000                       # average LoadLockedReq mshr miss latency
system.cpu.dcache.LoadLockedReq_avg_mshr_miss_latency::total        93000                       # average LoadLockedReq mshr miss latency
system.cpu.dcache.StoreCondReq_hits::.cpu.data           20                       # number of StoreCondReq hits
system.cpu.dcache.StoreCondReq_hits::total           20                       # number of StoreCondReq hits
system.cpu.dcache.StoreCondReq_accesses::.cpu.data           20                       # number of StoreCondReq accesses(hits+misses)
system.cpu.dcache.StoreCondReq_accesses::total           20                       # number of StoreCondReq accesses(hits+misses)
system.cpu.dcache.power_state.pwrStateResidencyTicks::UNDEFINED     67363000                       # Cumulative time (in ticks) in various power states
system.cpu.dcache.tags.tagsinuse           109.503943                       # Cycle average of tags in use
system.cpu.dcache.tags.total_refs                3680                       # Total number of references to valid blocks.
system.cpu.dcache.tags.sampled_refs               213                       # Sample count of references to valid blocks.
system.cpu.dcache.tags.avg_refs             17.276995                       # Average number of references to valid blocks.
system.cpu.dcache.tags.warmup_cycle            223000                       # Cycle when the warmup percentage was hit.
system.cpu.dcache.tags.occ_blocks::.cpu.data   109.503943                       # Average occupied blocks per requestor
system.cpu.dcache.tags.occ_percent::.cpu.data     0.213875                       # Average percentage of cache occupancy
system.cpu.dcache.tags.occ_percent::total     0.213875                       # Average percentage of cache occupancy
system.cpu.dcache.tags.occ_task_id_blocks::1024          200                       # Occupied blocks per task id
system.cpu.dcache.tags.age_task_id_blocks_1024::0           28                       # Occupied blocks per task id
system.cpu.dcache.tags.age_task_id_blocks_1024::1          172                       # Occupied blocks per task id
system.cpu.dcache.tags.occ_task_id_percent::1024     0.390625                       # Percentage of cache occupancy per task id
system.cpu.dcache.tags.tag_accesses              7713                       # Number of tag accesses
system.cpu.dcache.tags.data_accesses             7713                       # Number of data accesses
system.cpu.dcache.tags.power_state.pwrStateResidencyTicks::UNDEFINED     67363000                       # Cumulative time (in ticks) in various power states
system.cpu.dtb.instHits                             0                       # ITB inst hits
system.cpu.dtb.instMisses                           0                       # ITB inst misses
system.cpu.dtb.readHits                             0                       # DTB read hits
system.cpu.dtb.readMisses                           0                       # DTB read misses
system.cpu.dtb.writeHits                            0                       # DTB write hits
system.cpu.dtb.writeMisses                          0                       # DTB write misses
system.cpu.dtb.inserts                              0                       # Number of times an entry is inserted into the TLB
system.cpu.dtb.flushTlb                             0                       # Number of times complete TLB was flushed
system.cpu.dtb.flushTlbMva                          0                       # Number of times TLB was flushed by MVA
system.cpu.dtb.flushTlbMvaAsid                      0                       # Number of times TLB was flushed by MVA & ASID
system.cpu.dtb.flushTlbAsid                         0                       # Number of times TLB was flushed by ASID
system.cpu.dtb.flushedEntries                       0                       # Number of entries that have been flushed from TLB
system.cpu.dtb.alignFaults                          0                       # Number of TLB faults due to alignment restrictions
system.cpu.dtb.prefetchFaults                       0                       # Number of TLB faults due to prefetch
system.cpu.dtb.domainFaults                         0                       # Number of TLB faults due to domain restrictions
system.cpu.dtb.permsFaults                          0                       # Number of TLB faults due to permissions restrictions
system.cpu.dtb.readAccesses                         0                       # DTB read accesses
system.cpu.dtb.writeAccesses                        0                       # DTB write accesses
system.cpu.dtb.instAccesses                         0                       # ITB inst accesses
system.cpu.dtb.hits                                 0                       # Total TLB (inst and data) hits
system.cpu.dtb.misses                               0                       # Total TLB (inst and data) misses
system.cpu.dtb.accesses                             0                       # Total TLB (inst and data) accesses
system.cpu.dtb.stage2_mmu.stage2_tlb.instHits            0                       # ITB inst hits
system.cpu.dtb.stage2_mmu.stage2_tlb.instMisses            0                       # ITB inst misses
system.cpu.dtb.stage2_mmu.stage2_tlb.readHits            0                       # DTB read hits
system.cpu.dtb.stage2_mmu.stage2_tlb.readMisses            0                       # DTB read misses
system.cpu.dtb.stage2_mmu.stage2_tlb.writeHits            0                       # DTB write hits
system.cpu.dtb.stage2_mmu.stage2_tlb.writeMisses            0                       # DTB write misses
system.cpu.dtb.stage2_mmu.stage2_tlb.inserts            0                       # Number of times an entry is inserted into the TLB
system.cpu.dtb.stage2_mmu.stage2_tlb.flushTlb            0                       # Number of times complete TLB was flushed
system.cpu.dtb.stage2_mmu.stage2_tlb.flushTlbMva            0                       # Number of times TLB was flushed by MVA
system.cpu.dtb.stage2_mmu.stage2_tlb.flushTlbMvaAsid            0                       # Number of times TLB was flushed by MVA & ASID
system.cpu.dtb.stage2_mmu.stage2_tlb.flushTlbAsid            0                       # Number of times TLB was flushed by ASID
system.cpu.dtb.stage2_mmu.stage2_tlb.flushedEntries            0                       # Number of entries that have been flushed from TLB
system.cpu.dtb.stage2_mmu.stage2_tlb.alignFaults            0                       # Number of TLB faults due to alignment restrictions
system.cpu.dtb.stage2_mmu.stage2_tlb.prefetchFaults            0                       # Number of TLB faults due to prefetch
system.cpu.dtb.stage2_mmu.stage2_tlb.domainFaults            0                       # Number of TLB faults due to domain restrictions
system.cpu.dtb.stage2_mmu.stage2_tlb.permsFaults            0                       # Number of TLB faults due to permissions restrictions
system.cpu.dtb.stage2_mmu.stage2_tlb.readAccesses            0                       # DTB read accesses
system.cpu.dtb.stage2_mmu.stage2_tlb.writeAccesses            0                       # DTB write accesses
system.cpu.dtb.stage2_mmu.stage2_tlb.instAccesses            0                       # ITB inst accesses
system.cpu.dtb.stage2_mmu.stage2_tlb.hits            0                       # Total TLB (inst and data) hits
system.cpu.dtb.stage2_mmu.stage2_tlb.misses            0                       # Total TLB (inst and data) misses
system.cpu.dtb.stage2_mmu.stage2_tlb.accesses            0                       # Total TLB (inst and data) accesses
system.cpu.dtb.stage2_mmu.stage2_tlb.walker.walks            0                       # Table walker walks requested
system.cpu.dtb.stage2_mmu.stage2_tlb.walker.requestOrigin_Requested::Data            0                       # Table walker requests started/completed, data/inst
system.cpu.dtb.stage2_mmu.stage2_tlb.walker.requestOrigin_Requested::Inst            0                       # Table walker requests started/completed, data/inst
system.cpu.dtb.stage2_mmu.stage2_tlb.walker.requestOrigin_Requested::total            0                       # Table walker requests started/completed, data/inst
system.cpu.dtb.stage2_mmu.stage2_tlb.walker.requestOrigin_Completed::Data            0                       # Table walker requests started/completed, data/inst
system.cpu.dtb.stage2_mmu.stage2_tlb.walker.requestOrigin_Completed::Inst            0                       # Table walker requests started/completed, data/inst
system.cpu.dtb.stage2_mmu.stage2_tlb.walker.requestOrigin_Completed::total            0                       # Table walker requests started/completed, data/inst
system.cpu.dtb.stage2_mmu.stage2_tlb.walker.requestOrigin::total            0                       # Table walker requests started/completed, data/inst
system.cpu.dtb.stage2_mmu.stage2_tlb.walker.power_state.pwrStateResidencyTicks::UNDEFINED     67363000                       # Cumulative time (in ticks) in various power states
system.cpu.dtb.walker.walks                         0                       # Table walker walks requested
system.cpu.dtb.walker.requestOrigin_Requested::Data            0                       # Table walker requests started/completed, data/inst
system.cpu.dtb.walker.requestOrigin_Requested::Inst            0                       # Table walker requests started/completed, data/inst
system.cpu.dtb.walker.requestOrigin_Requested::total            0                       # Table walker requests started/completed, data/inst
system.cpu.dtb.walker.requestOrigin_Completed::Data            0                       # Table walker requests started/completed, data/inst
system.cpu.dtb.walker.requestOrigin_Completed::Inst            0                       # Table walker requests started/completed, data/inst
system.cpu.dtb.walker.requestOrigin_Completed::total            0                       # Table walker requests started/completed, data/inst
system.cpu.dtb.walker.requestOrigin::total            0                       # Table walker requests started/completed, data/inst
system.cpu.dtb.walker.power_state.pwrStateResidencyTicks::UNDEFINED     67363000                       # Cumulative time (in ticks) in various power states
system.cpu.fetch2.intInstructions               10685                       # Number of integer instructions successfully decoded
system.cpu.fetch2.fpInstructions                    0                       # Number of floating point instructions successfully decoded
system.cpu.fetch2.vecInstructions                   0                       # Number of SIMD instructions successfully decoded
system.cpu.fetch2.loadInstructions               2567                       # Number of memory load instructions successfully decoded
system.cpu.fetch2.storeInstructions              1462                       # Number of memory store instructions successfully decoded
system.cpu.fetch2.amoInstructions                   0                       # Number of memory atomic instructions successfully decoded
system.cpu.icache.demand_hits::.cpu.inst         3602                       # number of demand (read+write) hits
system.cpu.icache.demand_hits::total             3602                       # number of demand (read+write) hits
system.cpu.icache.overall_hits::.cpu.inst         3602                       # number of overall hits
system.cpu.icache.overall_hits::total            3602                       # number of overall hits
system.cpu.icache.demand_misses::.cpu.inst          436                       # number of demand (read+write) misses
system.cpu.icache.demand_misses::total            436                       # number of demand (read+write) misses
system.cpu.icache.overall_misses::.cpu.inst          436                       # number of overall misses
system.cpu.icache.overall_misses::total           436                       # number of overall misses
system.cpu.icache.demand_miss_latency::.cpu.inst     44015000                       # number of demand (read+write) miss cycles
system.cpu.icache.demand_miss_latency::total     44015000                       # number of demand (read+write) miss cycles
system.cpu.icache.overall_miss_latency::.cpu.inst     44015000                       # number of overall miss cycles
system.cpu.icache.overall_miss_latency::total     44015000                       # number of overall miss cycles
system.cpu.icache.demand_accesses::.cpu.inst         4038                       # number of demand (read+write) accesses
system.cpu.icache.demand_accesses::total         4038                       # number of demand (read+write) accesses
system.cpu.icache.overall_accesses::.cpu.inst         4038                       # number of overall (read+write) accesses
system.cpu.icache.overall_accesses::total         4038                       # number of overall (read+write) accesses
system.cpu.icache.demand_miss_rate::.cpu.inst     0.107974                       # miss rate for demand accesses
system.cpu.icache.demand_miss_rate::total     0.107974                       # miss rate for demand accesses
system.cpu.icache.overall_miss_rate::.cpu.inst     0.107974                       # miss rate for overall accesses
system.cpu.icache.overall_miss_rate::total     0.107974                       # miss rate for overall accesses
system.cpu.icache.demand_avg_miss_latency::.cpu.inst 100951.834862                       # average overall miss latency
system.cpu.icache.demand_avg_miss_latency::total 100951.834862                       # average overall miss latency
system.cpu.icache.overall_avg_miss_latency::.cpu.inst 100951.834862                       # average overall miss latency
system.cpu.icache.overall_avg_miss_latency::total 100951.834862                       # average overall miss latency
system.cpu.icache.blocked_cycles::no_mshrs            0                       # number of cycles access was blocked
system.cpu.icache.blocked_cycles::no_targets            0                       # number of cycles access was blocked
system.cpu.icache.blocked::no_mshrs                 0                       # number of cycles access was blocked
system.cpu.icache.blocked::no_targets               0                       # number of cycles access was blocked
system.cpu.icache.avg_blocked_cycles::no_mshrs          nan                       # average number of cycles each access was blocked
system.cpu.icache.avg_blocked_cycles::no_targets          nan                       # average number of cycles each access was blocked
system.cpu.icache.writebacks::.writebacks           29                       # number of writebacks
system.cpu.icache.writebacks::total                29                       # number of writebacks
system.cpu.icache.demand_mshr_misses::.cpu.inst          436                       # number of demand (read+write) MSHR misses
system.cpu.icache.demand_mshr_misses::total          436                       # number of demand (read+write) MSHR misses
system.cpu.icache.overall_mshr_misses::.cpu.inst          436                       # number of overall MSHR misses
system.cpu.icache.overall_mshr_misses::total          436                       # number of overall MSHR misses
system.cpu.icache.demand_mshr_miss_latency::.cpu.inst     43143000                       # number of demand (read+write) MSHR miss cycles
system.cpu.icache.demand_mshr_miss_latency::total     43143000                       # number of demand (read+write) MSHR miss cycles
system.cpu.icache.overall_mshr_miss_latency::.cpu.inst     43143000                       # number of overall MSHR miss cycles
system.cpu.icache.overall_mshr_miss_latency::total     43143000                       # number of overall MSHR miss cycles
system.cpu.icache.demand_mshr_miss_rate::.cpu.inst     0.107974                       # mshr miss rate for demand accesses
system.cpu.icache.demand_mshr_miss_rate::total     0.107974                       # mshr miss rate for demand accesses
system.cpu.icache.overall_mshr_miss_rate::.cpu.inst     0.107974                       # mshr miss rate for overall accesses
system.cpu.icache.overall_mshr_miss_rate::total     0.107974                       # mshr miss rate for overall accesses
system.cpu.icache.demand_avg_mshr_miss_latency::.cpu.inst 98951.834862                       # average overall mshr miss latency
system.cpu.icache.demand_avg_mshr_miss_latency::total 98951.834862                       # average overall mshr miss latency
system.cpu.icache.overall_avg_mshr_miss_latency::.cpu.inst 98951.834862                       # average overall mshr miss latency
system.cpu.icache.overall_avg_mshr_miss_latency::total 98951.834862                       # average overall mshr miss latency
system.cpu.icache.replacements                     29                       # number of replacements
system.cpu.icache.ReadReq_hits::.cpu.inst         3602                       # number of ReadReq hits
system.cpu.icache.ReadReq_hits::total            3602                       # number of ReadReq hits
system.cpu.icache.ReadReq_misses::.cpu.inst          436                       # number of ReadReq misses
system.cpu.icache.ReadReq_misses::total           436                       # number of ReadReq misses
system.cpu.icache.ReadReq_miss_latency::.cpu.inst     44015000                       # number of ReadReq miss cycles
system.cpu.icache.ReadReq_miss_latency::total     44015000                       # number of ReadReq miss cycles
system.cpu.icache.ReadReq_accesses::.cpu.inst         4038                       # number of ReadReq accesses(hits+misses)
system.cpu.icache.ReadReq_accesses::total         4038                       # number of ReadReq accesses(hits+misses)
system.cpu.icache.ReadReq_miss_rate::.cpu.inst     0.107974                       # miss rate for ReadReq accesses
system.cpu.icache.ReadReq_miss_rate::total     0.107974                       # miss rate for ReadReq accesses
system.cpu.icache.ReadReq_avg_miss_latency::.cpu.inst 100951.834862                       # average ReadReq miss latency
system.cpu.icache.ReadReq_avg_miss_latency::total 100951.834862                       # average ReadReq miss latency
system.cpu.icache.ReadReq_mshr_misses::.cpu.inst          436                       # number of ReadReq MSHR misses
system.cpu.icache.ReadReq_mshr_misses::total          436                       # number of ReadReq MSHR misses
system.cpu.icache.ReadReq_mshr_miss_latency::.cpu.inst     43143000                       # number of ReadReq MSHR miss cycles
system.cpu.icache.ReadReq_mshr_miss_latency::total     43143000                       # number of ReadReq MSHR miss cycles
system.cpu.icache.ReadReq_mshr_miss_rate::.cpu.inst     0.107974                       # mshr miss rate for ReadReq accesses
system.cpu.icache.ReadReq_mshr_miss_rate::total     0.107974                       # mshr miss rate for ReadReq accesses
system.cpu.icache.ReadReq_avg_mshr_miss_latency::.cpu.inst 98951.834862                       # average ReadReq mshr miss latency
system.cpu.icache.ReadReq_avg_mshr_miss_latency::total 98951.834862                       # average ReadReq mshr miss latency
system.cpu.icache.power_state.pwrStateResidencyTicks::UNDEFINED     67363000                       # Cumulative time (in ticks) in various power states
system.cpu.icache.tags.tagsinuse           209.369152                       # Cycle average of tags in use
system.cpu.icache.tags.total_refs                4038                       # Total number of references to valid blocks.
system.cpu.icache.tags.sampled_refs               436                       # Sample count of references to valid blocks.
system.cpu.icache.tags.avg_refs              9.261468                       # Average number of references to valid blocks.
system.cpu.icache.tags.warmup_cycle            108000                       # Cycle when the warmup percentage was hit.
system.cpu.icache.tags.occ_blocks::.cpu.inst   209.369152                       # Average occupied blocks per requestor
system.cpu.icache.tags.occ_percent::.cpu.inst     0.204462                       # Average percentage of cache occupancy
system.cpu.icache.tags.occ_percent::total     0.204462                       # Average percentage of cache occupancy
system.cpu.icache.tags.occ_task_id_blocks::1024          407                       # Occupied blocks per task id
system.cpu.icache.tags.age_task_id_blocks_1024::0           62                       # Occupied blocks per task id
system.cpu.icache.tags.age_task_id_blocks_1024::1          345                       # Occupied blocks per task id
system.cpu.icache.tags.occ_task_id_percent::1024     0.397461                       # Percentage of cache occupancy per task id
system.cpu.icache.tags.tag_accesses              8512                       # Number of tag accesses
system.cpu.icache.tags.data_accesses             8512                       # Number of data accesses
system.cpu.icache.tags.power_state.pwrStateResidencyTicks::UNDEFINED     67363000                       # Cumulative time (in ticks) in various power states
system.cpu.itb.instHits                             0                       # ITB inst hits
system.cpu.itb.instMisses                           0                       # ITB inst misses
system.cpu.itb.readHits                             0                       # DTB read hits
system.cpu.itb.readMisses                           0                       # DTB read misses
system.cpu.itb.writeHits                            0                       # DTB write hits
system.cpu.itb.writeMisses                          0                       # DTB write misses
system.cpu.itb.inserts                              0                       # Number of times an entry is inserted into the TLB
system.cpu.itb.flushTlb                             0                       # Number of times complete TLB was flushed
system.cpu.itb.flushTlbMva                          0                       # Number of times TLB was flushed by MVA
system.cpu.itb.flushTlbMvaAsid                      0                       # Number of times TLB was flushed by MVA & ASID
system.cpu.itb.flushTlbAsid                         0                       # Number of times TLB was flushed by ASID
system.cpu.itb.flushedEntries                       0                       # Number of entries that have been flushed from TLB
system.cpu.itb.alignFaults                          0                       # Number of TLB faults due to alignment restrictions
system.cpu.itb.prefetchFaults                       0                       # Number of TLB faults due to prefetch
system.cpu.itb.domainFaults                         0                       # Number of TLB faults due to domain restrictions
system.cpu.itb.permsFaults                          0                       # Number of TLB faults due to permissions restrictions
system.cpu.itb.readAccesses                         0                       # DTB read accesses
system.cpu.itb.writeAccesses                        0                       # DTB write accesses
system.cpu.itb.instAccesses                         0                       # ITB inst accesses
system.cpu.itb.hits                                 0                       # Total TLB (inst and data) hits
system.cpu.itb.misses                               0                       # Total TLB (inst and data) misses
system.cpu.itb.accesses                             0                       # Total TLB (inst and data) accesses
system.cpu.itb.stage2_mmu.stage2_tlb.instHits            0                       # ITB inst hits
system.cpu.itb.stage2_mmu.stage2_tlb.instMisses            0                       # ITB inst misses
system.cpu.itb.stage2_mmu.stage2_tlb.readHits            0                       # DTB read hits
system.cpu.itb.stage2_mmu.stage2_tlb.readMisses            0                       # DTB read misses
system.cpu.itb.stage2_mmu.stage2_tlb.writeHits            0                       # DTB write hits
system.cpu.itb.stage2_mmu.stage2_tlb.writeMisses            0                       # DTB write misses
system.cpu.itb.stage2_mmu.stage2_tlb.inserts            0                       # Number of times an entry is inserted into the TLB
system.cpu.itb.stage2_mmu.stage2_tlb.flushTlb            0                       # Number of times complete TLB was flushed
system.cpu.itb.stage2_mmu.stage2_tlb.flushTlbMva            0                       # Number of times TLB was flushed by MVA
system.cpu.itb.stage2_mmu.stage2_tlb.flushTlbMvaAsid            0                       # Number of times TLB was flushed by MVA & ASID
system.cpu.itb.stage2_mmu.stage2_tlb.flushTlbAsid            0                       # Number of times TLB was flushed by ASID
system.cpu.itb.stage2_mmu.stage2_tlb.flushedEntries            0                       # Number of entries that have been flushed from TLB
system.cpu.itb.stage2_mmu.stage2_tlb.alignFaults            0                       # Number of TLB faults due to alignment restrictions
system.cpu.itb.stage2_mmu.stage2_tlb.prefetchFaults            0                       # Number of TLB faults due to prefetch
system.cpu.itb.stage2_mmu.stage2_tlb.domainFaults            0                       # Number of TLB faults due to domain restrictions
system.cpu.itb.stage2_mmu.stage2_tlb.permsFaults            0                       # Number of TLB faults due to permissions restrictions
system.cpu.itb.stage2_mmu.stage2_tlb.readAccesses            0                       # DTB read accesses
system.cpu.itb.stage2_mmu.stage2_tlb.writeAccesses            0                       # DTB write accesses
system.cpu.itb.stage2_mmu.stage2_tlb.instAccesses            0                       # ITB inst accesses
system.cpu.itb.stage2_mmu.stage2_tlb.hits            0                       # Total TLB (inst and data) hits
system.cpu.itb.stage2_mmu.stage2_tlb.misses            0                       # Total TLB (inst and data) misses
system.cpu.itb.stage2_mmu.stage2_tlb.accesses            0                       # Total TLB (inst and data) accesses
system.cpu.itb.stage2_mmu.stage2_tlb.walker.walks            0                       # Table walker walks requested
system.cpu.itb.stage2_mmu.stage2_tlb.walker.requestOrigin_Requested::Data            0                       # Table walker requests started/completed, data/inst
system.cpu.itb.stage2_mmu.stage2_tlb.walker.requestOrigin_Requested::Inst            0                       # Table walker requests started/completed, data/inst
system.cpu.itb.stage2_mmu.stage2_tlb.walker.requestOrigin_Requested::total            0                       # Table walker requests started/completed, data/inst
system.cpu.itb.stage2_mmu.stage2_tlb.walker.requestOrigin_Completed::Data            0                       # Table walker requests started/completed, data/inst
system.cpu.itb.stage2_mmu.stage2_tlb.walker.requestOrigin_Completed::Inst            0                       # Table walker requests started/completed, data/inst
system.cpu.itb.stage2_mmu.stage2_tlb.walker.requestOrigin_Completed::total            0                       # Table walker requests started/completed, data/inst
system.cpu.itb.stage2_mmu.stage2_tlb.walker.requestOrigin::total            0                       # Table walker requests started/completed, data/inst
system.cpu.itb.stage2_mmu.stage2_tlb.walker.power_state.pwrStateResidencyTicks::UNDEFINED     67363000                       # Cumulative time (in ticks) in various power states
system.cpu.itb.walker.walks                         0                       # Table walker walks requested
system.cpu.itb.walker.requestOrigin_Requested::Data            0                       # Table walker requests started/completed, data/inst
system.cpu.itb.walker.requestOrigin_Requested::Inst            0                       # Table walker requests started/completed, data/inst
system.cpu.itb.walker.requestOrigin_Requested::total            0                       # Table walker requests started/completed, data/inst
system.cpu.itb.walker.requestOrigin_Completed::Data            0                       # Table walker requests started/completed, data/inst
system.cpu.itb.walker.requestOrigin_Completed::Inst            0                       # Table walker requests started/completed, data/inst
system.cpu.itb.walker.requestOrigin_Completed::total            0                       # Table walker requests started/completed, data/inst
system.cpu.itb.walker.requestOrigin::total            0                       # Table walker requests started/completed, data/inst
system.cpu.itb.walker.power_state.pwrStateResidencyTicks::UNDEFINED     67363000                       # Cumulative time (in ticks) in various power states
system.cpu.power_state.pwrStateResidencyTicks::ON     67363000                       # Cumulative time (in ticks) in various power states
system.cpu.thread0.numInsts                     10100                       # Number of Instructions committed
system.cpu.thread0.numOps                       11626                       # Number of Ops committed
system.cpu.thread0.numMemRefs                       0                       # Number of Memory References
system.cpu_clk_domain.clock                      1000                       # Clock period in ticks
system.cpu_voltage_domain.voltage                   1                       # Voltage in Volts
system.l2.demand_hits::.cpu.inst                    7                       # number of demand (read+write) hits
system.l2.demand_hits::.cpu.data                   16                       # number of demand (read+write) hits
system.l2.demand_hits::total                       23                       # number of demand (read+write) hits
system.l2.overall_hits::.cpu.inst                   7                       # number of overall hits
system.l2.overall_hits::.cpu.data                  16                       # number of overall hits
system.l2.overall_hits::total                      23                       # number of overall hits
system.l2.demand_misses::.cpu.inst                429                       # number of demand (read+write) misses
system.l2.demand_misses::.cpu.data                197                       # number of demand (read+write) misses
system.l2.demand_misses::total                    626                       # number of demand (read+write) misses
system.l2.overall_misses::.cpu.inst               429                       # number of overall misses
system.l2.overall_misses::.cpu.data               197                       # number of overall misses
system.l2.overall_misses::total                   626                       # number of overall misses
system.l2.demand_miss_latency::.cpu.inst     41675000                       # number of demand (read+write) miss cycles
system.l2.demand_miss_latency::.cpu.data     20115000                       # number of demand (read+write) miss cycles
system.l2.demand_miss_latency::total         61790000                       # number of demand (read+write) miss cycles
system.l2.overall_miss_latency::.cpu.inst     41675000                       # number of overall miss cycles
system.l2.overall_miss_latency::.cpu.data     20115000                       # number of overall miss cycles
system.l2.overall_miss_latency::total        61790000                       # number of overall miss cycles
system.l2.demand_accesses::.cpu.inst              436                       # number of demand (read+write) accesses
system.l2.demand_accesses::.cpu.data              213                       # number of demand (read+write) accesses
system.l2.demand_accesses::total                  649                       # number of demand (read+write) accesses
system.l2.overall_accesses::.cpu.inst             436                       # number of overall (read+write) accesses
system.l2.overall_accesses::.cpu.data             213                       # number of overall (read+write) accesses
system.l2.overall_accesses::total                 649                       # number of overall (read+write) accesses
system.l2.demand_miss_rate::.cpu.inst        0.983945                       # miss rate for demand accesses
system.l2.demand_miss_rate::.cpu.data        0.924883                       # miss rate for demand accesses
system.l2.demand_miss_rate::total            0.964561                       # miss rate for demand accesses
system.l2.overall_miss_rate::.cpu.inst       0.983945                       # miss rate for overall accesses
system.l2.overall_miss_rate::.cpu.data       0.924883                       # miss rate for overall accesses
system.l2.overall_miss_rate::total           0.964561                       # miss rate for overall accesses
system.l2.demand_avg_miss_latency::.cpu.inst 97144.522145                       # average overall miss latency
system.l2.demand_avg_miss_latency::.cpu.data 102106.598985                       # average overall miss latency
system.l2.demand_avg_miss_latency::total 98706.070288                       # average overall miss latency
system.l2.overall_avg_miss_latency::.cpu.inst 97144.522145                       # average overall miss latency
system.l2.overall_avg_miss_latency::.cpu.data 102106.598985                       # average overall miss latency
system.l2.overall_avg_miss_latency::total 98706.070288                       # average overall miss latency
system.l2.blocked_cycles::no_mshrs                  0                       # number of cycles access was blocked
system.l2.blocked_cycles::no_targets                0                       # number of cycles access was blocked
system.l2.blocked::no_mshrs                         0                       # number of cycles access was blocked
system.l2.blocked::no_targets                       0                       # number of cycles access was blocked
system.l2.avg_blocked_cycles::no_mshrs            nan                       # average number of cycles each access was blocked
system.l2.avg_blocked_cycles::no_targets          nan                       # average number of cycles each access was blocked
system.l2.demand_mshr_hits::.cpu.inst               1                       # number of demand (read+write) MSHR hits
system.l2.demand_mshr_hits::.cpu.data               2                       # number of demand (read+write) MSHR hits
system.l2.demand_mshr_hits::total                   3                       # number of demand (read+write) MSHR hits
system.l2.overall_mshr_hits::.cpu.inst              1                       # number of overall MSHR hits
system.l2.overall_mshr_hits::.cpu.data              2                       # number of overall MSHR hits
system.l2.overall_mshr_hits::total                  3                       # number of overall MSHR hits
system.l2.demand_mshr_misses::.cpu.inst           428                       # number of demand (read+write) MSHR misses
system.l2.demand_mshr_misses::.cpu.data           195                       # number of demand (read+write) MSHR misses
system.l2.demand_mshr_misses::total               623                       # number of demand (read+write) MSHR misses
system.l2.overall_mshr_misses::.cpu.inst          428                       # number of overall MSHR misses
system.l2.overall_mshr_misses::.cpu.data          195                       # number of overall MSHR misses
system.l2.overall_mshr_misses::total              623                       # number of overall MSHR misses
system.l2.demand_mshr_miss_latency::.cpu.inst     33012000                       # number of demand (read+write) MSHR miss cycles
system.l2.demand_mshr_miss_latency::.cpu.data     16044000                       # number of demand (read+write) MSHR miss cycles
system.l2.demand_mshr_miss_latency::total     49056000                       # number of demand (read+write) MSHR miss cycles
system.l2.overall_mshr_miss_latency::.cpu.inst     33012000                       # number of overall MSHR miss cycles
system.l2.overall_mshr_miss_latency::.cpu.data     16044000                       # number of overall MSHR miss cycles
system.l2.overall_mshr_miss_latency::total     49056000                       # number of overall MSHR miss cycles
system.l2.demand_mshr_miss_rate::.cpu.inst     0.981651                       # mshr miss rate for demand accesses
system.l2.demand_mshr_miss_rate::.cpu.data     0.915493                       # mshr miss rate for demand accesses
system.l2.demand_mshr_miss_rate::total       0.959938                       # mshr miss rate for demand accesses
system.l2.overall_mshr_miss_rate::.cpu.inst     0.981651                       # mshr miss rate for overall accesses
system.l2.overall_mshr_miss_rate::.cpu.data     0.915493                       # mshr miss rate for overall accesses
system.l2.overall_mshr_miss_rate::total      0.959938                       # mshr miss rate for overall accesses
system.l2.demand_avg_mshr_miss_latency::.cpu.inst 77130.841121                       # average overall mshr miss latency
system.l2.demand_avg_mshr_miss_latency::.cpu.data 82276.923077                       # average overall mshr miss latency
system.l2.demand_avg_mshr_miss_latency::total 78741.573034                       # average overall mshr miss latency
system.l2.overall_avg_mshr_miss_latency::.cpu.inst 77130.841121                       # average overall mshr miss latency
system.l2.overall_avg_mshr_miss_latency::.cpu.data 82276.923077                       # average overall mshr miss latency
system.l2.overall_avg_mshr_miss_latency::total 78741.573034                       # average overall mshr miss latency
system.l2.replacements                              0                       # number of replacements
system.l2.WritebackDirty_hits::.writebacks            4                       # number of WritebackDirty hits
system.l2.WritebackDirty_hits::total                4                       # number of WritebackDirty hits
system.l2.WritebackDirty_accesses::.writebacks            4                       # number of WritebackDirty accesses(hits+misses)
system.l2.WritebackDirty_accesses::total            4                       # number of WritebackDirty accesses(hits+misses)
system.l2.WritebackClean_hits::.writebacks           26                       # number of WritebackClean hits
system.l2.WritebackClean_hits::total               26                       # number of WritebackClean hits
system.l2.WritebackClean_accesses::.writebacks           26                       # number of WritebackClean accesses(hits+misses)
system.l2.WritebackClean_accesses::total           26                       # number of WritebackClean accesses(hits+misses)
system.l2.ReadExReq_misses::.cpu.data              80                       # number of ReadExReq misses
system.l2.ReadExReq_misses::total                  80                       # number of ReadExReq misses
system.l2.ReadExReq_miss_latency::.cpu.data      8032000                       # number of ReadExReq miss cycles
system.l2.ReadExReq_miss_latency::total       8032000                       # number of ReadExReq miss cycles
system.l2.ReadExReq_accesses::.cpu.data            80                       # number of ReadExReq accesses(hits+misses)
system.l2.ReadExReq_accesses::total                80                       # number of ReadExReq accesses(hits+misses)
system.l2.ReadExReq_miss_rate::.cpu.data            1                       # miss rate for ReadExReq accesses
system.l2.ReadExReq_miss_rate::total                1                       # miss rate for ReadExReq accesses
system.l2.ReadExReq_avg_miss_latency::.cpu.data       100400                       # average ReadExReq miss latency
system.l2.ReadExReq_avg_miss_latency::total       100400                       # average ReadExReq miss latency
system.l2.ReadExReq_mshr_misses::.cpu.data           80                       # number of ReadExReq MSHR misses
system.l2.ReadExReq_mshr_misses::total             80                       # number of ReadExReq MSHR misses
system.l2.ReadExReq_mshr_miss_latency::.cpu.data      6432000                       # number of ReadExReq MSHR miss cycles
system.l2.ReadExReq_mshr_miss_latency::total      6432000                       # number of ReadExReq MSHR miss cycles
system.l2.ReadExReq_mshr_miss_rate::.cpu.data            1                       # mshr miss rate for ReadExReq accesses
system.l2.ReadExReq_mshr_miss_rate::total            1                       # mshr miss rate for ReadExReq accesses
system.l2.ReadExReq_avg_mshr_miss_latency::.cpu.data        80400                       # average ReadExReq mshr miss latency
system.l2.ReadExReq_avg_mshr_miss_latency::total        80400                       # average ReadExReq mshr miss latency
system.l2.ReadCleanReq_hits::.cpu.inst              7                       # number of ReadCleanReq hits
system.l2.ReadCleanReq_hits::total                  7                       # number of ReadCleanReq hits
system.l2.ReadCleanReq_misses::.cpu.inst          429                       # number of ReadCleanReq misses
system.l2.ReadCleanReq_misses::total              429                       # number of ReadCleanReq misses
system.l2.ReadCleanReq_miss_latency::.cpu.inst     41675000                       # number of ReadCleanReq miss cycles
system.l2.ReadCleanReq_miss_latency::total     41675000                       # number of ReadCleanReq miss cycles
system.l2.ReadCleanReq_accesses::.cpu.inst          436                       # number of ReadCleanReq accesses(hits+misses)
system.l2.ReadCleanReq_accesses::total            436                       # number of ReadCleanReq accesses(hits+misses)
system.l2.ReadCleanReq_miss_rate::.cpu.inst     0.983945                       # miss rate for ReadCleanReq accesses
system.l2.ReadCleanReq_miss_rate::total      0.983945                       # miss rate for ReadCleanReq accesses
system.l2.ReadCleanReq_avg_miss_latency::.cpu.inst 97144.522145                       # average ReadCleanReq miss latency
system.l2.ReadCleanReq_avg_miss_latency::total 97144.522145                       # average ReadCleanReq miss latency
system.l2.ReadCleanReq_mshr_hits::.cpu.inst            1                       # number of ReadCleanReq MSHR hits
system.l2.ReadCleanReq_mshr_hits::total             1                       # number of ReadCleanReq MSHR hits
system.l2.ReadCleanReq_mshr_misses::.cpu.inst          428                       # number of ReadCleanReq MSHR misses
system.l2.ReadCleanReq_mshr_misses::total          428                       # number of ReadCleanReq MSHR misses
system.l2.ReadCleanReq_mshr_miss_latency::.cpu.inst     33012000                       # number of ReadCleanReq MSHR miss cycles
system.l2.ReadCleanReq_mshr_miss_latency::total     33012000                       # number of ReadCleanReq MSHR miss cycles
system.l2.ReadCleanReq_mshr_miss_rate::.cpu.inst     0.981651                       # mshr miss rate for ReadCleanReq accesses
system.l2.ReadCleanReq_mshr_miss_rate::total     0.981651                       # mshr miss rate for ReadCleanReq accesses
system.l2.ReadCleanReq_avg_mshr_miss_latency::.cpu.inst 77130.841121                       # average ReadCleanReq mshr miss latency
system.l2.ReadCleanReq_avg_mshr_miss_latency::total 77130.841121                       # average ReadCleanReq mshr miss latency
system.l2.ReadSharedReq_hits::.cpu.data            16                       # number of ReadSharedReq hits
system.l2.ReadSharedReq_hits::total                16                       # number of ReadSharedReq hits
system.l2.ReadSharedReq_misses::.cpu.data          117                       # number of ReadSharedReq misses
system.l2.ReadSharedReq_misses::total             117                       # number of ReadSharedReq misses
system.l2.ReadSharedReq_miss_latency::.cpu.data     12083000                       # number of ReadSharedReq miss cycles
system.l2.ReadSharedReq_miss_latency::total     12083000                       # number of ReadSharedReq miss cycles
system.l2.ReadSharedReq_accesses::.cpu.data          133                       # number of ReadSharedReq accesses(hits+misses)
system.l2.ReadSharedReq_accesses::total           133                       # number of ReadSharedReq accesses(hits+misses)
system.l2.ReadSharedReq_miss_rate::.cpu.data     0.879699                       # miss rate for ReadSharedReq accesses
system.l2.ReadSharedReq_miss_rate::total     0.879699                       # miss rate for ReadSharedReq accesses
system.l2.ReadSharedReq_avg_miss_latency::.cpu.data 103273.504274                       # average ReadSharedReq miss latency
system.l2.ReadSharedReq_avg_miss_latency::total 103273.504274                       # average ReadSharedReq miss latency
system.l2.ReadSharedReq_mshr_hits::.cpu.data            2                       # number of ReadSharedReq MSHR hits
system.l2.ReadSharedReq_mshr_hits::total            2                       # number of ReadSharedReq MSHR hits
system.l2.ReadSharedReq_mshr_misses::.cpu.data          115                       # number of ReadSharedReq MSHR misses
system.l2.ReadSharedReq_mshr_misses::total          115                       # number of ReadSharedReq MSHR misses
system.l2.ReadSharedReq_mshr_miss_latency::.cpu.data      9612000                       # number of ReadSharedReq MSHR miss cycles
system.l2.ReadSharedReq_mshr_miss_latency::total      9612000                       # number of ReadSharedReq MSHR miss cycles
system.l2.ReadSharedReq_mshr_miss_rate::.cpu.data     0.864662                       # mshr miss rate for ReadSharedReq accesses
system.l2.ReadSharedReq_mshr_miss_rate::total     0.864662                       # mshr miss rate for ReadSharedReq accesses
system.l2.ReadSharedReq_avg_mshr_miss_latency::.cpu.data 83582.608696                       # average ReadSharedReq mshr miss latency
system.l2.ReadSharedReq_avg_mshr_miss_latency::total 83582.608696                       # average ReadSharedReq mshr miss latency
system.l2.power_state.pwrStateResidencyTicks::UNDEFINED     67363000                       # Cumulative time (in ticks) in various power states
system.l2.tags.tagsinuse                   319.161473                       # Cycle average of tags in use
system.l2.tags.total_refs                         682                       # Total number of references to valid blocks.
system.l2.tags.sampled_refs                       623                       # Sample count of references to valid blocks.
system.l2.tags.avg_refs                      1.094703                       # Average number of references to valid blocks.
system.l2.tags.warmup_cycle                     87000                       # Cycle when the warmup percentage was hit.
system.l2.tags.occ_blocks::.cpu.inst       214.194650                       # Average occupied blocks per requestor
system.l2.tags.occ_blocks::.cpu.data       104.966823                       # Average occupied blocks per requestor
system.l2.tags.occ_percent::.cpu.inst        0.013073                       # Average percentage of cache occupancy
system.l2.tags.occ_percent::.cpu.data        0.006407                       # Average percentage of cache occupancy
system.l2.tags.occ_percent::total            0.019480                       # Average percentage of cache occupancy
system.l2.tags.occ_task_id_blocks::1024           623                       # Occupied blocks per task id
system.l2.tags.age_task_id_blocks_1024::0           85                       # Occupied blocks per task id
system.l2.tags.age_task_id_blocks_1024::1          538                       # Occupied blocks per task id
system.l2.tags.occ_task_id_percent::1024     0.038025                       # Percentage of cache occupancy per task id
system.l2.tags.tag_accesses                      6103                       # Number of tag accesses
system.l2.tags.data_accesses                     6103                       # Number of data accesses
system.l2.tags.power_state.pwrStateResidencyTicks::UNDEFINED     67363000                       # Cumulative time (in ticks) in various power states
system.mem_ctrls.avgPriority_.cpu.inst::samples       428.00                       # Average QoS priority value for accepted requests
system.mem_ctrls.avgPriority_.cpu.data::samples       195.00                       # Average QoS priority value for accepted requests
system.mem_ctrls.priorityMinLatency      0.000000018750                       # per QoS priority minimum request to response latency (s)
system.mem_ctrls.priorityMaxLatency      0.000000539000                       # per QoS priority maximum request to response latency (s)
system.mem_ctrls.numReadWriteTurnArounds            0                       # Number of turnarounds from READ to WRITE
system.mem_ctrls.numWriteReadTurnArounds            0                       # Number of turnarounds from WRITE to READ
system.mem_ctrls.numStayReadState                1256                       # Number of times bus staying in READ state
system.mem_ctrls.numStayWriteState                  0                       # Number of times bus staying in WRITE state
system.mem_ctrls.readReqs                         623                       # Number of read requests accepted
system.mem_ctrls.writeReqs                          0                       # Number of write requests accepted
system.mem_ctrls.readBursts                       623                       # Number of controller read bursts, including those serviced by the write queue
system.mem_ctrls.writeBursts                        0                       # Number of controller write bursts, including those merged in the write queue
system.mem_ctrls.servicedByWrQ                      0                       # Number of controller read bursts serviced by the write queue
system.mem_ctrls.mergedWrBursts                     0                       # Number of controller write bursts merged with an existing one
system.mem_ctrls.neitherReadNorWriteReqs            0                       # Number of requests that are neither read nor write
system.mem_ctrls.avgRdQLen                       1.14                       # Average read queue length when enqueuing
system.mem_ctrls.avgWrQLen                       0.00                       # Average write queue length when enqueuing
system.mem_ctrls.numRdRetry                         0                       # Number of times read queue was full causing retry
system.mem_ctrls.numWrRetry                         0                       # Number of times write queue was full causing retry
system.mem_ctrls.readPktSize::0                     0                       # Read request sizes (log2)
system.mem_ctrls.readPktSize::1                     0                       # Read request sizes (log2)
system.mem_ctrls.readPktSize::2                     0                       # Read request sizes (log2)
system.mem_ctrls.readPktSize::3                     0                       # Read request sizes (log2)
system.mem_ctrls.readPktSize::4                     0                       # Read request sizes (log2)
system.mem_ctrls.readPktSize::5                     0                       # Read request sizes (log2)
system.mem_ctrls.readPktSize::6                   623                       # Read request sizes (log2)
system.mem_ctrls.writePktSize::0                    0                       # Write request sizes (log2)
system.mem_ctrls.writePktSize::1                    0                       # Write request sizes (log2)
system.mem_ctrls.writePktSize::2                    0                       # Write request sizes (log2)
system.mem_ctrls.writePktSize::3                    0                       # Write request sizes (log2)
system.mem_ctrls.writePktSize::4                    0                       # Write request sizes (log2)
system.mem_ctrls.writePktSize::5                    0                       # Write request sizes (log2)
system.mem_ctrls.writePktSize::6                    0                       # Write request sizes (log2)
system.mem_ctrls.rdQLenPdf::0                     537                       # What read queue length does an incoming req see
system.mem_ctrls.rdQLenPdf::1                      80                       # What read queue length does an incoming req see
[...]
system.mem_ctrls.dram.bw_read::.cpu.data    185264908                       # Total read bandwidth from this memory (bytes/s)
system.mem_ctrls.dram.bw_read::total        591897629                       # Total read bandwidth from this memory (bytes/s)
system.mem_ctrls.dram.bw_inst_read::.cpu.inst    406632721                       # Instruction read bandwidth from this memory (bytes/s)
system.mem_ctrls.dram.bw_inst_read::total    406632721                       # Instruction read bandwidth from this memory (bytes/s)
system.mem_ctrls.dram.bw_total::.cpu.inst    406632721                       # Total bandwidth to/from this memory (bytes/s)
system.mem_ctrls.dram.bw_total::.cpu.data    185264908                       # Total bandwidth to/from this memory (bytes/s)
system.mem_ctrls.dram.bw_total::total       591897629                       # Total bandwidth to/from this memory (bytes/s)
system.mem_ctrls.dram.readBursts                  623                       # Number of DRAM read bursts
system.mem_ctrls.dram.writeBursts                   0                       # Number of DRAM write bursts
system.mem_ctrls.dram.perBankRdBursts::0           59                       # Per bank write bursts
system.mem_ctrls.dram.perBankRdBursts::1           21                       # Per bank write bursts
system.mem_ctrls.dram.perBankRdBursts::2           29                       # Per bank write bursts
system.mem_ctrls.dram.perBankRdBursts::3           72                       # Per bank write bursts
system.mem_ctrls.dram.perBankRdBursts::4           52                       # Per bank write bursts
system.mem_ctrls.dram.perBankRdBursts::5            0                       # Per bank write bursts
system.mem_ctrls.dram.perBankRdBursts::6           27                       # Per bank write bursts
system.mem_ctrls.dram.perBankRdBursts::7           37                       # Per bank write bursts
system.mem_ctrls.dram.perBankRdBursts::8           56                       # Per bank write bursts
system.mem_ctrls.dram.perBankRdBursts::9           40                       # Per bank write bursts
system.mem_ctrls.dram.perBankRdBursts::10           54                       # Per bank write bursts
system.mem_ctrls.dram.perBankRdBursts::11           15                       # Per bank write bursts
system.mem_ctrls.dram.perBankRdBursts::12            0                       # Per bank write bursts
system.mem_ctrls.dram.perBankRdBursts::13           25                       # Per bank write bursts
system.mem_ctrls.dram.perBankRdBursts::14           90                       # Per bank write bursts
system.mem_ctrls.dram.perBankRdBursts::15           46                       # Per bank write bursts
system.mem_ctrls.dram.perBankWrBursts::0            0                       # Per bank write bursts
system.mem_ctrls.dram.perBankWrBursts::1            0                       # Per bank write bursts
system.mem_ctrls.dram.perBankWrBursts::2            0                       # Per bank write bursts
system.mem_ctrls.dram.perBankWrBursts::3            0                       # Per bank write bursts
system.mem_ctrls.dram.perBankWrBursts::4            0                       # Per bank write bursts
system.mem_ctrls.dram.perBankWrBursts::5            0                       # Per bank write bursts
system.mem_ctrls.dram.perBankWrBursts::6            0                       # Per bank write bursts
system.mem_ctrls.dram.perBankWrBursts::7            0                       # Per bank write bursts
system.mem_ctrls.dram.perBankWrBursts::8            0                       # Per bank write bursts
system.mem_ctrls.dram.perBankWrBursts::9            0                       # Per bank write bursts
system.mem_ctrls.dram.perBankWrBursts::10            0                       # Per bank write bursts
system.mem_ctrls.dram.perBankWrBursts::11            0                       # Per bank write bursts
system.mem_ctrls.dram.perBankWrBursts::12            0                       # Per bank write bursts
system.mem_ctrls.dram.perBankWrBursts::13            0                       # Per bank write bursts
system.mem_ctrls.dram.perBankWrBursts::14            0                       # Per bank write bursts
system.mem_ctrls.dram.perBankWrBursts::15            0                       # Per bank write bursts
system.mem_ctrls.dram.totQLat                 5383000                       # Total ticks spent queuing
system.mem_ctrls.dram.totBusLat               3115000                       # Total ticks spent in databus transfers
system.mem_ctrls.dram.totMemAccLat           17064250                       # Total ticks spent from burst creation until serviced by the DRAM
system.mem_ctrls.dram.avgQLat                 8640.45                       # Average queueing delay per DRAM burst
system.mem_ctrls.dram.avgBusLat               5000.00                       # Average bus latency per DRAM burst
system.mem_ctrls.dram.avgMemAccLat           27390.45                       # Average memory access latency per DRAM burst
system.mem_ctrls.dram.readRowHits                 460                       # Number of row buffer hits during reads
system.mem_ctrls.dram.writeRowHits                  0                       # Number of row buffer hits during writes
system.mem_ctrls.dram.readRowHitRate            73.84                       # Row buffer hit rate for reads
system.mem_ctrls.dram.writeRowHitRate             nan                       # Row buffer hit rate for writes
system.mem_ctrls.dram.bytesPerActivate::samples          157                       # Bytes accessed per row activation
system.mem_ctrls.dram.bytesPerActivate::mean   247.439490                       # Bytes accessed per row activation
system.mem_ctrls.dram.bytesPerActivate::gmean   166.647509                       # Bytes accessed per row activation
system.mem_ctrls.dram.bytesPerActivate::stdev   247.563080                       # Bytes accessed per row activation
system.mem_ctrls.dram.bytesPerActivate::0-127           52     33.12%     33.12% # Bytes accessed per row activation
system.mem_ctrls.dram.bytesPerActivate::128-255           47     29.94%     63.06% # Bytes accessed per row activation
system.mem_ctrls.dram.bytesPerActivate::256-383           28     17.83%     80.89% # Bytes accessed per row activation
system.mem_ctrls.dram.bytesPerActivate::384-511            7      4.46%     85.35% # Bytes accessed per row activation
system.mem_ctrls.dram.bytesPerActivate::512-639            8      5.10%     90.45% # Bytes accessed per row activation
system.mem_ctrls.dram.bytesPerActivate::640-767            1      0.64%     91.08% # Bytes accessed per row activation
system.mem_ctrls.dram.bytesPerActivate::768-895            5      3.18%     94.27% # Bytes accessed per row activation
system.mem_ctrls.dram.bytesPerActivate::896-1023            4      2.55%     96.82% # Bytes accessed per row activation
system.mem_ctrls.dram.bytesPerActivate::1024-1151            5      3.18%    100.00% # Bytes accessed per row activation
system.mem_ctrls.dram.bytesPerActivate::total          157                       # Bytes accessed per row activation
system.mem_ctrls.dram.bytesRead                 39872                       # Total number of bytes read from DRAM
system.mem_ctrls.dram.bytesWritten                  0                       # Total number of bytes written to DRAM
system.mem_ctrls.dram.avgRdBW              591.897629                       # Average DRAM read bandwidth in MiBytes/s
system.mem_ctrls.dram.avgWrBW                       0                       # Average DRAM write bandwidth in MiBytes/s
system.mem_ctrls.dram.peakBW                 12800.00                       # Theoretical peak bandwidth in MiByte/s
system.mem_ctrls.dram.busUtil                    4.62                       # Data bus utilization in percentage
system.mem_ctrls.dram.busUtilRead                4.62                       # Data bus utilization in percentage for reads
system.mem_ctrls.dram.busUtilWrite               0.00                       # Data bus utilization in percentage for writes
system.mem_ctrls.dram.pageHitRate               73.84                       # Row buffer hit rate, read and write combined
system.mem_ctrls.dram.power_state.pwrStateResidencyTicks::UNDEFINED     67363000                       # Cumulative time (in ticks) in various power states
system.mem_ctrls.dram.rank0.actEnergy          556920                       # Energy for activate commands per rank (pJ)
system.mem_ctrls.dram.rank0.preEnergy          280830                       # Energy for precharge commands per rank (pJ)
system.mem_ctrls.dram.rank0.readEnergy        2120580                       # Energy for read commands per rank (pJ)
system.mem_ctrls.dram.rank0.writeEnergy             0                       # Energy for write commands per rank (pJ)
system.mem_ctrls.dram.rank0.refreshEnergy 4917120.000000                       # Energy for refresh commands per rank (pJ)
system.mem_ctrls.dram.rank0.actBackEnergy     28165980                       # Energy for active background per rank (pJ)
system.mem_ctrls.dram.rank0.preBackEnergy      2148960                       # Energy for precharge background per rank (pJ)
system.mem_ctrls.dram.rank0.actPowerDownEnergy            0                       # Energy for active power-down per rank (pJ)
system.mem_ctrls.dram.rank0.prePowerDownEnergy            0                       # Energy for precharge power-down per rank (pJ)
system.mem_ctrls.dram.rank0.selfRefreshEnergy            0                       # Energy for self refresh per rank (pJ)
system.mem_ctrls.dram.rank0.totalEnergy      38190390                       # Total energy per rank (pJ)
system.mem_ctrls.dram.rank0.averagePower   566.934222                       # Core power per rank (mW)
system.mem_ctrls.dram.rank0.totalIdleTime            0                       # Total Idle time Per DRAM Rank
system.mem_ctrls.dram.rank0.pwrStateTime::IDLE      5346500                       # Time in different power states
system.mem_ctrls.dram.rank0.pwrStateTime::REF      2080000                       # Time in different power states
system.mem_ctrls.dram.rank0.pwrStateTime::SREF            0                       # Time in different power states
system.mem_ctrls.dram.rank0.pwrStateTime::PRE_PDN            0                       # Time in different power states
system.mem_ctrls.dram.rank0.pwrStateTime::ACT     59936500                       # Time in different power states
system.mem_ctrls.dram.rank0.pwrStateTime::ACT_PDN            0                       # Time in different power states
system.mem_ctrls.dram.rank1.actEnergy          606900                       # Energy for activate commands per rank (pJ)
system.mem_ctrls.dram.rank1.preEnergy          314985                       # Energy for precharge commands per rank (pJ)
system.mem_ctrls.dram.rank1.readEnergy        2327640                       # Energy for read commands per rank (pJ)
system.mem_ctrls.dram.rank1.writeEnergy             0                       # Energy for write commands per rank (pJ)
system.mem_ctrls.dram.rank1.refreshEnergy 4917120.000000                       # Energy for refresh commands per rank (pJ)
system.mem_ctrls.dram.rank1.actBackEnergy     29502060                       # Energy for active background per rank (pJ)
system.mem_ctrls.dram.rank1.preBackEnergy      1023840                       # Energy for precharge background per rank (pJ)
system.mem_ctrls.dram.rank1.actPowerDownEnergy            0                       # Energy for active power-down per rank (pJ)
system.mem_ctrls.dram.rank1.prePowerDownEnergy            0                       # Energy for precharge power-down per rank (pJ)
system.mem_ctrls.dram.rank1.selfRefreshEnergy            0                       # Energy for self refresh per rank (pJ)
system.mem_ctrls.dram.rank1.totalEnergy      38692545                       # Total energy per rank (pJ)
system.mem_ctrls.dram.rank1.averagePower   574.388685                       # Core power per rank (mW)
system.mem_ctrls.dram.rank1.totalIdleTime            0                       # Total Idle time Per DRAM Rank
system.mem_ctrls.dram.rank1.pwrStateTime::IDLE      2400250                       # Time in different power states
system.mem_ctrls.dram.rank1.pwrStateTime::REF      2080000                       # Time in different power states
system.mem_ctrls.dram.rank1.pwrStateTime::SREF            0                       # Time in different power states
system.mem_ctrls.dram.rank1.pwrStateTime::PRE_PDN            0                       # Time in different power states
system.mem_ctrls.dram.rank1.pwrStateTime::ACT     62882750                       # Time in different power states
system.mem_ctrls.dram.rank1.pwrStateTime::ACT_PDN            0                       # Time in different power states
system.mem_ctrls.power_state.pwrStateResidencyTicks::UNDEFINED     67363000                       # Cumulative time (in ticks) in various power states
system.membus.trans_dist::ReadResp                543                       # Transaction distribution
system.membus.trans_dist::ReadExReq                80                       # Transaction distribution
system.membus.trans_dist::ReadExResp               80                       # Transaction distribution
system.membus.trans_dist::ReadSharedReq           543                       # Transaction distribution
system.membus.pkt_count_system.l2.mem_side_port::system.mem_ctrls.port         1246                       # Packet count per connected requestor and responder (bytes)
system.membus.pkt_count::total                   1246                       # Packet count per connected requestor and responder (bytes)
system.membus.pkt_size_system.l2.mem_side_port::system.mem_ctrls.port        39872                       # Cumulative packet size per connected requestor and responder (bytes)
system.membus.pkt_size::total                   39872                       # Cumulative packet size per connected requestor and responder (bytes)
system.membus.snoops                                0                       # Total snoops (count)
system.membus.snoopTraffic                          0                       # Total snoop traffic (bytes)
system.membus.snoop_fanout::samples               623                       # Request fanout histogram
system.membus.snoop_fanout::mean                    0                       # Request fanout histogram
system.membus.snoop_fanout::stdev                   0                       # Request fanout histogram
system.membus.snoop_fanout::underflows              0      0.00%      0.00% # Request fanout histogram
system.membus.snoop_fanout::0                     623    100.00%    100.00% # Request fanout histogram
system.membus.snoop_fanout::1                       0      0.00%    100.00% # Request fanout histogram
system.membus.snoop_fanout::overflows               0      0.00%    100.00% # Request fanout histogram
system.membus.snoop_fanout::min_value               0                       # Request fanout histogram
system.membus.snoop_fanout::max_value               0                       # Request fanout histogram
system.membus.snoop_fanout::total                 623                       # Request fanout histogram
system.membus.power_state.pwrStateResidencyTicks::UNDEFINED     67363000                       # Cumulative time (in ticks) in various power states
system.membus.reqLayer0.occupancy              623000                       # Layer occupancy (ticks)
system.membus.reqLayer0.utilization               0.9                       # Layer utilization (%)
system.membus.respLayer1.occupancy            3324500                       # Layer occupancy (ticks)
system.membus.respLayer1.utilization              4.9                       # Layer utilization (%)
system.tol2bus.trans_dist::ReadResp               569                       # Transaction distribution
system.tol2bus.trans_dist::WritebackDirty            4                       # Transaction distribution
system.tol2bus.trans_dist::WritebackClean           29                       # Transaction distribution
system.tol2bus.trans_dist::CleanEvict               9                       # Transaction distribution
system.tol2bus.trans_dist::ReadExReq               80                       # Transaction distribution
system.tol2bus.trans_dist::ReadExResp              80                       # Transaction distribution
system.tol2bus.trans_dist::ReadCleanReq           436                       # Transaction distribution
system.tol2bus.trans_dist::ReadSharedReq          133                       # Transaction distribution
system.tol2bus.pkt_count_system.cpu.icache.mem_side_port::system.l2.cpu_side_port          901                       # Packet count per connected requestor and responder (bytes)
system.tol2bus.pkt_count_system.cpu.dcache.mem_side_port::system.l2.cpu_side_port          439                       # Packet count per connected requestor and responder (bytes)
system.tol2bus.pkt_count::total                  1340                       # Packet count per connected requestor and responder (bytes)
system.tol2bus.pkt_size_system.cpu.icache.mem_side_port::system.l2.cpu_side_port        29760                       # Cumulative packet size per connected requestor and responder (bytes)
system.tol2bus.pkt_size_system.cpu.dcache.mem_side_port::system.l2.cpu_side_port        13888                       # Cumulative packet size per connected requestor and responder (bytes)
system.tol2bus.pkt_size::total                  43648                       # Cumulative packet size per connected requestor and responder (bytes)
system.tol2bus.snoops                               0                       # Total snoops (count)
system.tol2bus.snoopTraffic                         0                       # Total snoop traffic (bytes)
system.tol2bus.snoop_fanout::samples              649                       # Request fanout histogram
system.tol2bus.snoop_fanout::mean            0.033898                       # Request fanout histogram
system.tol2bus.snoop_fanout::stdev           0.181107                       # Request fanout histogram
system.tol2bus.snoop_fanout::underflows             0      0.00%      0.00% # Request fanout histogram
system.tol2bus.snoop_fanout::0                    627     96.61%     96.61% # Request fanout histogram
system.tol2bus.snoop_fanout::1                     22      3.39%    100.00% # Request fanout histogram
system.tol2bus.snoop_fanout::2                      0      0.00%    100.00% # Request fanout histogram
system.tol2bus.snoop_fanout::overflows              0      0.00%    100.00% # Request fanout histogram
system.tol2bus.snoop_fanout::min_value              0                       # Request fanout histogram
system.tol2bus.snoop_fanout::max_value              1                       # Request fanout histogram
system.tol2bus.snoop_fanout::total                649                       # Request fanout histogram
system.tol2bus.power_state.pwrStateResidencyTicks::UNDEFINED     67363000                       # Cumulative time (in ticks) in various power states
system.tol2bus.reqLayer0.occupancy             757000                       # Layer occupancy (ticks)
system.tol2bus.reqLayer0.utilization              1.1                       # Layer utilization (%)
system.tol2bus.respLayer0.occupancy           1308999                       # Layer occupancy (ticks)
system.tol2bus.respLayer0.utilization             1.9                       # Layer utilization (%)
system.tol2bus.respLayer1.occupancy            640998                       # Layer occupancy (ticks)
system.tol2bus.respLayer1.utilization             1.0                       # Layer utilization (%)
system.voltage_domain.voltage                       1                       # Voltage in Volts

---------- End Simulation Statistics   ----------
