
---------- Begin Simulation Statistics ----------
final_tick                               162209141000                       # Number of ticks from beginning of simulation (restored from checkpoints and never reset)
host_inst_rate                                 274318                       # Simulator instruction rate (inst/s)
host_mem_usage                                 663960                       # Number of bytes of host memory used
host_op_rate                                   274857                       # Simulator op (including micro ops) rate (op/s)
host_seconds                                   364.54                       # Real time elapsed on the host
host_tick_rate                              444969415                       # Simulator tick rate (ticks/s)
sim_freq                                 1000000000000                       # Frequency of simulated ticks
sim_insts                                   100000001                       # Number of instructions simulated
sim_ops                                     100196356                       # Number of ops (including micro ops) simulated
sim_seconds                                  0.162209                       # Number of seconds simulated
sim_ticks                                162209141000                       # Number of ticks simulated
system.cpu.committedInsts                   100000001                       # Number of instructions committed
system.cpu.committedOps                     100196356                       # Number of ops (including micro ops) committed
system.cpu.cpi                               1.622091                       # CPI: cycles per instruction
system.cpu.discardedOps                        189495                       # Number of ops (including micro ops) which were discarded before commit
system.cpu.idleCycles                        29463625                       # Total number of cycles that the object has spent stopped
system.cpu.ipc                               0.616488                       # IPC: instructions per cycle
system.cpu.numCycles                        162209141                       # number of cpu cycles simulated
system.cpu.numFetchSuspends                         0                       # Number of times Execute suspended instruction fetching
system.cpu.numWorkItemsCompleted                    0                       # number of work items this cpu completed
system.cpu.numWorkItemsStarted                      0                       # number of work items this cpu started
system.cpu.op_class_0::No_OpClass                   0      0.00%      0.00% # Class of committed instruction
system.cpu.op_class_0::IntAlu                46526863     46.44%     46.44% # Class of committed instruction
system.cpu.op_class_0::IntMult                  20723      0.02%     46.46% # Class of committed instruction
system.cpu.op_class_0::IntDiv                       0      0.00%     46.46% # Class of committed instruction
system.cpu.op_class_0::FloatAdd                     0      0.00%     46.46% # Class of committed instruction
system.cpu.op_class_0::FloatCmp                     0      0.00%     46.46% # Class of committed instruction
system.cpu.op_class_0::FloatCvt                     0      0.00%     46.46% # Class of committed instruction
system.cpu.op_class_0::FloatMult                    0      0.00%     46.46% # Class of committed instruction
system.cpu.op_class_0::FloatMultAcc                 0      0.00%     46.46% # Class of committed instruction
system.cpu.op_class_0::FloatDiv                     0      0.00%     46.46% # Class of committed instruction
system.cpu.op_class_0::FloatMisc                    0      0.00%     46.46% # Class of committed instruction
system.cpu.op_class_0::FloatSqrt                    0      0.00%     46.46% # Class of committed instruction
system.cpu.op_class_0::SimdAdd                      0      0.00%     46.46% # Class of committed instruction
system.cpu.op_class_0::SimdAddAcc                   0      0.00%     46.46% # Class of committed instruction
system.cpu.op_class_0::SimdAlu                      0      0.00%     46.46% # Class of committed instruction
system.cpu.op_class_0::SimdCmp                      0      0.00%     46.46% # Class of committed instruction
system.cpu.op_class_0::SimdCvt                      0      0.00%     46.46% # Class of committed instruction
system.cpu.op_class_0::SimdMisc                     0      0.00%     46.46% # Class of committed instruction
system.cpu.op_class_0::SimdMult                     0      0.00%     46.46% # Class of committed instruction
system.cpu.op_class_0::SimdMultAcc                  0      0.00%     46.46% # Class of committed instruction
system.cpu.op_class_0::SimdShift                    0      0.00%     46.46% # Class of committed instruction
system.cpu.op_class_0::SimdShiftAcc                 0      0.00%     46.46% # Class of committed instruction
system.cpu.op_class_0::SimdDiv                      0      0.00%     46.46% # Class of committed instruction
system.cpu.op_class_0::SimdSqrt                     0      0.00%     46.46% # Class of committed instruction
system.cpu.op_class_0::SimdFloatAdd                 0      0.00%     46.46% # Class of committed instruction
system.cpu.op_class_0::SimdFloatAlu                 0      0.00%     46.46% # Class of committed instruction
system.cpu.op_class_0::SimdFloatCmp                 0      0.00%     46.46% # Class of committed instruction
system.cpu.op_class_0::SimdFloatCvt                 0      0.00%     46.46% # Class of committed instruction
system.cpu.op_class_0::SimdFloatDiv                 0      0.00%     46.46% # Class of committed instruction
system.cpu.op_class_0::SimdFloatMisc               18      0.00%     46.46% # Class of committed instruction
system.cpu.op_class_0::SimdFloatMult                0      0.00%     46.46% # Class of committed instruction
system.cpu.op_class_0::SimdFloatMultAcc             0      0.00%     46.46% # Class of committed instruction
system.cpu.op_class_0::SimdFloatSqrt                0      0.00%     46.46% # Class of committed instruction
system.cpu.op_class_0::SimdReduceAdd                0      0.00%     46.46% # Class of committed instruction
system.cpu.op_class_0::SimdReduceAlu                0      0.00%     46.46% # Class of committed instruction
system.cpu.op_class_0::SimdReduceCmp                0      0.00%     46.46% # Class of committed instruction
system.cpu.op_class_0::SimdFloatReduceAdd            0      0.00%     46.46% # Class of committed instruction
system.cpu.op_class_0::SimdFloatReduceCmp            0      0.00%     46.46% # Class of committed instruction
system.cpu.op_class_0::SimdAes                      0      0.00%     46.46% # Class of committed instruction
system.cpu.op_class_0::SimdAesMix                   0      0.00%     46.46% # Class of committed instruction
system.cpu.op_class_0::SimdSha1Hash                 0      0.00%     46.46% # Class of committed instruction
system.cpu.op_class_0::SimdSha1Hash2                0      0.00%     46.46% # Class of committed instruction
system.cpu.op_class_0::SimdSha256Hash               0      0.00%     46.46% # Class of committed instruction
system.cpu.op_class_0::SimdSha256Hash2              0      0.00%     46.46% # Class of committed instruction
system.cpu.op_class_0::SimdShaSigma2                0      0.00%     46.46% # Class of committed instruction
system.cpu.op_class_0::SimdShaSigma3                0      0.00%     46.46% # Class of committed instruction
system.cpu.op_class_0::SimdPredAlu                  0      0.00%     46.46% # Class of committed instruction
system.cpu.op_class_0::MemRead               42690537     42.61%     89.06% # Class of committed instruction
system.cpu.op_class_0::MemWrite              10958215     10.94%    100.00% # Class of committed instruction
system.cpu.op_class_0::FloatMemRead                 0      0.00%    100.00% # Class of committed instruction
system.cpu.op_class_0::FloatMemWrite                0      0.00%    100.00% # Class of committed instruction
system.cpu.op_class_0::IprAccess                    0      0.00%    100.00% # Class of committed instruction
system.cpu.op_class_0::InstPrefetch                 0      0.00%    100.00% # Class of committed instruction
system.cpu.op_class_0::total                100196356                       # Class of committed instruction
system.cpu.tickCycles                       132745516                       # Number of cycles that the object actually ticked
system.cpu.workload.numSyscalls                    85                       # Number of system calls
system.membus.snoop_filter.hit_multi_requests            0                       # Number of requests hitting in the snoop filter with multiple (>1) holders of the requested data.
system.membus.snoop_filter.hit_multi_snoops            0                       # Number of snoops hitting in the snoop filter with multiple (>1) holders of the requested data.
system.membus.snoop_filter.hit_single_requests       168785                       # Number of requests hitting in the snoop filter with a single holder of the requested data.
system.membus.snoop_filter.hit_single_snoops            0                       # Number of snoops hitting in the snoop filter with a single holder of the requested data.
system.membus.snoop_filter.tot_requests        370608                       # Total number of requests made to the snoop filter.
system.membus.snoop_filter.tot_snoops               0                       # Total number of snoops made to the snoop filter.
system.tol2bus.snoop_filter.hit_multi_requests          664                       # Number of requests hitting in the snoop filter with multiple (>1) holders of the requested data.
system.tol2bus.snoop_filter.hit_multi_snoops            0                       # Number of snoops hitting in the snoop filter with multiple (>1) holders of the requested data.
system.tol2bus.snoop_filter.hit_single_requests       780730                       # Number of requests hitting in the snoop filter with a single holder of the requested data.
system.tol2bus.snoop_filter.hit_single_snoops          420                       # Number of snoops hitting in the snoop filter with a single holder of the requested data.
system.tol2bus.snoop_filter.tot_requests      1562861                       # Total number of requests made to the snoop filter.
system.tol2bus.snoop_filter.tot_snoops            420                       # Total number of snoops made to the snoop filter.
system.clk_domain.clock                          1000                       # Clock period in ticks
system.cpu.branchPred.lookups                 4485825                       # Number of BP lookups
system.cpu.branchPred.condPredicted           3735499                       # Number of conditional branches predicted
system.cpu.branchPred.condIncorrect             81008                       # Number of conditional branches incorrect
system.cpu.branchPred.BTBLookups              2103830                       # Number of BTB lookups
system.cpu.branchPred.BTBHits                 2101835                       # Number of BTB hits
system.cpu.branchPred.BTBHitPct             99.905173                       # BTB Hit Percentage
system.cpu.branchPred.RASUsed                   65380                       # Number of times the RAS was used to get a target.
system.cpu.branchPred.RASIncorrect                 14                       # Number of incorrect RAS predictions.
system.cpu.branchPred.indirectLookups             697                       # Number of indirect predictor lookups.
system.cpu.branchPred.indirectHits                289                       # Number of indirect target hits.
system.cpu.branchPred.indirectMisses              408                       # Number of indirect misses.
system.cpu.branchPred.indirectMispredicted          171                       # Number of mispredicted indirect branches.
system.cpu.dcache.demand_hits::.cpu.data     51230231                       # number of demand (read+write) hits
system.cpu.dcache.demand_hits::total         51230231                       # number of demand (read+write) hits
system.cpu.dcache.overall_hits::.cpu.data     51230703                       # number of overall hits
system.cpu.dcache.overall_hits::total        51230703                       # number of overall hits
system.cpu.dcache.demand_misses::.cpu.data       828951                       # number of demand (read+write) misses
system.cpu.dcache.demand_misses::total         828951                       # number of demand (read+write) misses
system.cpu.dcache.overall_misses::.cpu.data       836898                       # number of overall misses
system.cpu.dcache.overall_misses::total        836898                       # number of overall misses
system.cpu.dcache.demand_miss_latency::.cpu.data  38127610999                       # number of demand (read+write) miss cycles
system.cpu.dcache.demand_miss_latency::total  38127610999                       # number of demand (read+write) miss cycles
system.cpu.dcache.overall_miss_latency::.cpu.data  38127610999                       # number of overall miss cycles
system.cpu.dcache.overall_miss_latency::total  38127610999                       # number of overall miss cycles
system.cpu.dcache.demand_accesses::.cpu.data     52059182                       # number of demand (read+write) accesses
system.cpu.dcache.demand_accesses::total     52059182                       # number of demand (read+write) accesses
system.cpu.dcache.overall_accesses::.cpu.data     52067601                       # number of overall (read+write) accesses
system.cpu.dcache.overall_accesses::total     52067601                       # number of overall (read+write) accesses
system.cpu.dcache.demand_miss_rate::.cpu.data     0.015923                       # miss rate for demand accesses
system.cpu.dcache.demand_miss_rate::total     0.015923                       # miss rate for demand accesses
system.cpu.dcache.overall_miss_rate::.cpu.data     0.016073                       # miss rate for overall accesses
system.cpu.dcache.overall_miss_rate::total     0.016073                       # miss rate for overall accesses
system.cpu.dcache.demand_avg_miss_latency::.cpu.data 45995.011767                       # average overall miss latency
system.cpu.dcache.demand_avg_miss_latency::total 45995.011767                       # average overall miss latency
system.cpu.dcache.overall_avg_miss_latency::.cpu.data 45558.253215                       # average overall miss latency
system.cpu.dcache.overall_avg_miss_latency::total 45558.253215                       # average overall miss latency
system.cpu.dcache.blocked_cycles::no_mshrs        98000                       # number of cycles access was blocked
system.cpu.dcache.blocked_cycles::no_targets            0                       # number of cycles access was blocked
system.cpu.dcache.blocked::no_mshrs              3217                       # number of cycles access was blocked
system.cpu.dcache.blocked::no_targets               0                       # number of cycles access was blocked
system.cpu.dcache.avg_blocked_cycles::no_mshrs    30.463164                       # average number of cycles each access was blocked
system.cpu.dcache.avg_blocked_cycles::no_targets          nan                       # average number of cycles each access was blocked
system.cpu.dcache.writebacks::.writebacks       699151                       # number of writebacks
system.cpu.dcache.writebacks::total            699151                       # number of writebacks
system.cpu.dcache.demand_mshr_hits::.cpu.data        55646                       # number of demand (read+write) MSHR hits
system.cpu.dcache.demand_mshr_hits::total        55646                       # number of demand (read+write) MSHR hits
system.cpu.dcache.overall_mshr_hits::.cpu.data        55646                       # number of overall MSHR hits
system.cpu.dcache.overall_mshr_hits::total        55646                       # number of overall MSHR hits
system.cpu.dcache.demand_mshr_misses::.cpu.data       773305                       # number of demand (read+write) MSHR misses
system.cpu.dcache.demand_mshr_misses::total       773305                       # number of demand (read+write) MSHR misses
system.cpu.dcache.overall_mshr_misses::.cpu.data       781248                       # number of overall MSHR misses
system.cpu.dcache.overall_mshr_misses::total       781248                       # number of overall MSHR misses
system.cpu.dcache.demand_mshr_miss_latency::.cpu.data  34884661000                       # number of demand (read+write) MSHR miss cycles
system.cpu.dcache.demand_mshr_miss_latency::total  34884661000                       # number of demand (read+write) MSHR miss cycles
system.cpu.dcache.overall_mshr_miss_latency::.cpu.data  35723383999                       # number of overall MSHR miss cycles
system.cpu.dcache.overall_mshr_miss_latency::total  35723383999                       # number of overall MSHR miss cycles
system.cpu.dcache.demand_mshr_miss_rate::.cpu.data     0.014854                       # mshr miss rate for demand accesses
system.cpu.dcache.demand_mshr_miss_rate::total     0.014854                       # mshr miss rate for demand accesses
system.cpu.dcache.overall_mshr_miss_rate::.cpu.data     0.015004                       # mshr miss rate for overall accesses
system.cpu.dcache.overall_mshr_miss_rate::total     0.015004                       # mshr miss rate for overall accesses
system.cpu.dcache.demand_avg_mshr_miss_latency::.cpu.data 45111.128209                       # average overall mshr miss latency
system.cpu.dcache.demand_avg_mshr_miss_latency::total 45111.128209                       # average overall mshr miss latency
system.cpu.dcache.overall_avg_mshr_miss_latency::.cpu.data 45726.048577                       # average overall mshr miss latency
system.cpu.dcache.overall_avg_mshr_miss_latency::total 45726.048577                       # average overall mshr miss latency
system.cpu.dcache.replacements                 780224                       # number of replacements
system.cpu.dcache.ReadReq_hits::.cpu.data     40657160                       # number of ReadReq hits
system.cpu.dcache.ReadReq_hits::total        40657160                       # number of ReadReq hits
system.cpu.dcache.ReadReq_misses::.cpu.data       452940                       # number of ReadReq misses
system.cpu.dcache.ReadReq_misses::total        452940                       # number of ReadReq misses
system.cpu.dcache.ReadReq_miss_latency::.cpu.data  16469678000                       # number of ReadReq miss cycles
system.cpu.dcache.ReadReq_miss_latency::total  16469678000                       # number of ReadReq miss cycles
system.cpu.dcache.ReadReq_accesses::.cpu.data     41110100                       # number of ReadReq accesses(hits+misses)
system.cpu.dcache.ReadReq_accesses::total     41110100                       # number of ReadReq accesses(hits+misses)
system.cpu.dcache.ReadReq_miss_rate::.cpu.data     0.011018                       # miss rate for ReadReq accesses
system.cpu.dcache.ReadReq_miss_rate::total     0.011018                       # miss rate for ReadReq accesses
system.cpu.dcache.ReadReq_avg_miss_latency::.cpu.data 36361.721199                       # average ReadReq miss latency
system.cpu.dcache.ReadReq_avg_miss_latency::total 36361.721199                       # average ReadReq miss latency
system.cpu.dcache.ReadReq_mshr_hits::.cpu.data         1914                       # number of ReadReq MSHR hits
system.cpu.dcache.ReadReq_mshr_hits::total         1914                       # number of ReadReq MSHR hits
system.cpu.dcache.ReadReq_mshr_misses::.cpu.data       451026                       # number of ReadReq MSHR misses
system.cpu.dcache.ReadReq_mshr_misses::total       451026                       # number of ReadReq MSHR misses
system.cpu.dcache.ReadReq_mshr_miss_latency::.cpu.data  15480358000                       # number of ReadReq MSHR miss cycles
system.cpu.dcache.ReadReq_mshr_miss_latency::total  15480358000                       # number of ReadReq MSHR miss cycles
system.cpu.dcache.ReadReq_mshr_miss_rate::.cpu.data     0.010971                       # mshr miss rate for ReadReq accesses
system.cpu.dcache.ReadReq_mshr_miss_rate::total     0.010971                       # mshr miss rate for ReadReq accesses
system.cpu.dcache.ReadReq_avg_mshr_miss_latency::.cpu.data 34322.540164                       # average ReadReq mshr miss latency
system.cpu.dcache.ReadReq_avg_mshr_miss_latency::total 34322.540164                       # average ReadReq mshr miss latency
system.cpu.dcache.WriteReq_hits::.cpu.data     10573071                       # number of WriteReq hits
system.cpu.dcache.WriteReq_hits::total       10573071                       # number of WriteReq hits
system.cpu.dcache.WriteReq_misses::.cpu.data       376011                       # number of WriteReq misses
system.cpu.dcache.WriteReq_misses::total       376011                       # number of WriteReq misses
system.cpu.dcache.WriteReq_miss_latency::.cpu.data  21657932999                       # number of WriteReq miss cycles
system.cpu.dcache.WriteReq_miss_latency::total  21657932999                       # number of WriteReq miss cycles
system.cpu.dcache.WriteReq_accesses::.cpu.data     10949082                       # number of WriteReq accesses(hits+misses)
system.cpu.dcache.WriteReq_accesses::total     10949082                       # number of WriteReq accesses(hits+misses)
system.cpu.dcache.WriteReq_miss_rate::.cpu.data     0.034342                       # miss rate for WriteReq accesses
system.cpu.dcache.WriteReq_miss_rate::total     0.034342                       # miss rate for WriteReq accesses
system.cpu.dcache.WriteReq_avg_miss_latency::.cpu.data 57599.200553                       # average WriteReq miss latency
system.cpu.dcache.WriteReq_avg_miss_latency::total 57599.200553                       # average WriteReq miss latency
system.cpu.dcache.WriteReq_mshr_hits::.cpu.data        53732                       # number of WriteReq MSHR hits
system.cpu.dcache.WriteReq_mshr_hits::total        53732                       # number of WriteReq MSHR hits
system.cpu.dcache.WriteReq_mshr_misses::.cpu.data       322279                       # number of WriteReq MSHR misses
system.cpu.dcache.WriteReq_mshr_misses::total       322279                       # number of WriteReq MSHR misses
system.cpu.dcache.WriteReq_mshr_miss_latency::.cpu.data  19404303000                       # number of WriteReq MSHR miss cycles
system.cpu.dcache.WriteReq_mshr_miss_latency::total  19404303000                       # number of WriteReq MSHR miss cycles
system.cpu.dcache.WriteReq_mshr_miss_rate::.cpu.data     0.029434                       # mshr miss rate for WriteReq accesses
system.cpu.dcache.WriteReq_mshr_miss_rate::total     0.029434                       # mshr miss rate for WriteReq accesses
system.cpu.dcache.WriteReq_avg_mshr_miss_latency::.cpu.data 60209.641336                       # average WriteReq mshr miss latency
system.cpu.dcache.WriteReq_avg_mshr_miss_latency::total 60209.641336                       # average WriteReq mshr miss latency
system.cpu.dcache.SoftPFReq_hits::.cpu.data          472                       # number of SoftPFReq hits
system.cpu.dcache.SoftPFReq_hits::total           472                       # number of SoftPFReq hits
system.cpu.dcache.SoftPFReq_misses::.cpu.data         7947                       # number of SoftPFReq misses
system.cpu.dcache.SoftPFReq_misses::total         7947                       # number of SoftPFReq misses
system.cpu.dcache.SoftPFReq_accesses::.cpu.data         8419                       # number of SoftPFReq accesses(hits+misses)
system.cpu.dcache.SoftPFReq_accesses::total         8419                       # number of SoftPFReq accesses(hits+misses)
system.cpu.dcache.SoftPFReq_miss_rate::.cpu.data     0.943936                       # miss rate for SoftPFReq accesses
system.cpu.dcache.SoftPFReq_miss_rate::total     0.943936                       # miss rate for SoftPFReq accesses
system.cpu.dcache.SoftPFReq_mshr_misses::.cpu.data         7943                       # number of SoftPFReq MSHR misses
system.cpu.dcache.SoftPFReq_mshr_misses::total         7943                       # number of SoftPFReq MSHR misses
system.cpu.dcache.SoftPFReq_mshr_miss_latency::.cpu.data    838722999                       # number of SoftPFReq MSHR miss cycles
system.cpu.dcache.SoftPFReq_mshr_miss_latency::total    838722999                       # number of SoftPFReq MSHR miss cycles
system.cpu.dcache.SoftPFReq_mshr_miss_rate::.cpu.data     0.943461                       # mshr miss rate for SoftPFReq accesses
system.cpu.dcache.SoftPFReq_mshr_miss_rate::total     0.943461                       # mshr miss rate for SoftPFReq accesses
system.cpu.dcache.SoftPFReq_avg_mshr_miss_latency::.cpu.data 105592.723027                       # average SoftPFReq mshr miss latency
system.cpu.dcache.SoftPFReq_avg_mshr_miss_latency::total 105592.723027                       # average SoftPFReq mshr miss latency
system.cpu.dcache.LoadLockedReq_hits::.cpu.data           38                       # number of LoadLockedReq hits
system.cpu.dcache.LoadLockedReq_hits::total           38                       # number of LoadLockedReq hits
system.cpu.dcache.LoadLockedReq_accesses::.cpu.data           38                       # number of LoadLockedReq accesses(hits+misses)
system.cpu.dcache.LoadLockedReq_accesses::total           38                       # number of LoadLockedReq accesses(hits+misses)
system.cpu.dcache.StoreCondReq_hits::.cpu.data           38                       # number of StoreCondReq hits
system.cpu.dcache.StoreCondReq_hits::total           38                       # number of StoreCondReq hits
system.cpu.dcache.StoreCondReq_accesses::.cpu.data           38                       # number of StoreCondReq accesses(hits+misses)
system.cpu.dcache.StoreCondReq_accesses::total           38                       # number of StoreCondReq accesses(hits+misses)
system.cpu.dcache.power_state.pwrStateResidencyTicks::UNDEFINED 162209141000                       # Cumulative time (in ticks) in various power states
system.cpu.dcache.tags.tagsinuse          1012.568371                       # Cycle average of tags in use
system.cpu.dcache.tags.total_refs            52012027                       # Total number of references to valid blocks.
system.cpu.dcache.tags.sampled_refs            781248                       # Sample count of references to valid blocks.
system.cpu.dcache.tags.avg_refs             66.575565                       # Average number of references to valid blocks.
system.cpu.dcache.tags.warmup_cycle            223000                       # Cycle when the warmup percentage was hit.
system.cpu.dcache.tags.occ_blocks::.cpu.data  1012.568371                       # Average occupied blocks per requestor
system.cpu.dcache.tags.occ_percent::.cpu.data     0.988836                       # Average percentage of cache occupancy
system.cpu.dcache.tags.occ_percent::total     0.988836                       # Average percentage of cache occupancy
system.cpu.dcache.tags.occ_task_id_blocks::1024         1024                       # Occupied blocks per task id
system.cpu.dcache.tags.age_task_id_blocks_1024::0           64                       # Occupied blocks per task id
system.cpu.dcache.tags.age_task_id_blocks_1024::1          221                       # Occupied blocks per task id
system.cpu.dcache.tags.age_task_id_blocks_1024::2          685                       # Occupied blocks per task id
system.cpu.dcache.tags.age_task_id_blocks_1024::3           54                       # Occupied blocks per task id
system.cpu.dcache.tags.occ_task_id_percent::1024            1                       # Percentage of cache occupancy per task id
system.cpu.dcache.tags.tag_accesses          52848925                       # Number of tag accesses
system.cpu.dcache.tags.data_accesses         52848925                       # Number of data accesses
system.cpu.dcache.tags.power_state.pwrStateResidencyTicks::UNDEFINED 162209141000                       # Cumulative time (in ticks) in various power states
system.cpu.dtb.instHits                             0                       # ITB inst hits
system.cpu.dtb.instMisses                           0                       # ITB inst misses
system.cpu.dtb.readHits                             0                       # DTB read hits
system.cpu.dtb.readMisses                           0                       # DTB read misses
system.cpu.dtb.writeHits                            0                       # DTB write hits
system.cpu.dtb.writeMisses                          0                       # DTB write misses
system.cpu.dtb.inserts                              0                       # Number of times an entry is inserted into the TLB
system.cpu.dtb.flushTlb                             0                       # Number of times complete TLB was flushed
system.cpu.dtb.flushTlbMva                          0                       # Number of times TLB was flushed by MVA
system.cpu.dtb.flushTlbMvaAsid                      0                       # Number of times TLB was flushed by MVA & ASID
system.cpu.dtb.flushTlbAsid                         0                       # Number of times TLB was flushed by ASID
system.cpu.dtb.flushedEntries                       0                       # Number of entries that have been flushed from TLB
system.cpu.dtb.alignFaults                          0                       # Number of TLB faults due to alignment restrictions
system.cpu.dtb.prefetchFaults                       0                       # Number of TLB faults due to prefetch
system.cpu.dtb.domainFaults                         0                       # Number of TLB faults due to domain restrictions
system.cpu.dtb.permsFaults                          0                       # Number of TLB faults due to permissions restrictions
system.cpu.dtb.readAccesses                         0                       # DTB read accesses
system.cpu.dtb.writeAccesses                        0                       # DTB write accesses
system.cpu.dtb.instAccesses                         0                       # ITB inst accesses
system.cpu.dtb.hits                                 0                       # Total TLB (inst and data) hits
system.cpu.dtb.misses                               0                       # Total TLB (inst and data) misses
system.cpu.dtb.accesses                             0                       # Total TLB (inst and data) accesses
system.cpu.dtb.stage2_mmu.stage2_tlb.instHits            0                       # ITB inst hits
system.cpu.dtb.stage2_mmu.stage2_tlb.instMisses            0                       # ITB inst misses
system.cpu.dtb.stage2_mmu.stage2_tlb.readHits            0                       # DTB read hits
system.cpu.dtb.stage2_mmu.stage2_tlb.readMisses            0                       # DTB read misses
system.cpu.dtb.stage2_mmu.stage2_tlb.writeHits            0                       # DTB write hits
system.cpu.dtb.stage2_mmu.stage2_tlb.writeMisses            0                       # DTB write misses
system.cpu.dtb.stage2_mmu.stage2_tlb.inserts            0                       # Number of times an entry is inserted into the TLB
system.cpu.dtb.stage2_mmu.stage2_tlb.flushTlb            0                       # Number of times complete TLB was flushed
system.cpu.dtb.stage2_mmu.stage2_tlb.flushTlbMva            0                       # Number of times TLB was flushed by MVA
system.cpu.dtb.stage2_mmu.stage2_tlb.flushTlbMvaAsid            0                       # Number of times TLB was flushed by MVA & ASID
system.cpu.dtb.stage2_mmu.stage2_tlb.flushTlbAsid            0                       # Number of times TLB was flushed by ASID
system.cpu.dtb.stage2_mmu.stage2_tlb.flushedEntries            0                       # Number of entries that have been flushed from TLB
system.cpu.dtb.stage2_mmu.stage2_tlb.alignFaults            0                       # Number of TLB faults due to alignment restrictions
system.cpu.dtb.stage2_mmu.stage2_tlb.prefetchFaults            0                       # Number of TLB faults due to prefetch
system.cpu.dtb.stage2_mmu.stage2_tlb.domainFaults            0                       # Number of TLB faults due to domain restrictions
system.cpu.dtb.stage2_mmu.stage2_tlb.permsFaults            0                       # Number of TLB faults due to permissions restrictions
system.cpu.dtb.stage2_mmu.stage2_tlb.readAccesses            0                       # DTB read accesses
system.cpu.dtb.stage2_mmu.stage2_tlb.writeAccesses            0                       # DTB write accesses
system.cpu.dtb.stage2_mmu.stage2_tlb.instAccesses            0                       # ITB inst accesses
system.cpu.dtb.stage2_mmu.stage2_tlb.hits            0                       # Total TLB (inst and data) hits
system.cpu.dtb.stage2_mmu.stage2_tlb.misses            0                       # Total TLB (inst and data) misses
system.cpu.dtb.stage2_mmu.stage2_tlb.accesses            0                       # Total TLB (inst and data) accesses
system.cpu.dtb.stage2_mmu.stage2_tlb.walker.walks            0                       # Table walker walks requested
system.cpu.dtb.stage2_mmu.stage2_tlb.walker.requestOrigin_Requested::Data            0                       # Table walker requests started/completed, data/inst
system.cpu.dtb.stage2_mmu.stage2_tlb.walker.requestOrigin_Requested::Inst            0                       # Table walker requests started/completed, data/inst
system.cpu.dtb.stage2_mmu.stage2_tlb.walker.requestOrigin_Requested::total            0                       # Table walker requests started/completed, data/inst
system.cpu.dtb.stage2_mmu.stage2_tlb.walker.requestOrigin_Completed::Data            0                       # Table walker requests started/completed, data/inst
system.cpu.dtb.stage2_mmu.stage2_tlb.walker.requestOrigin_Completed::Inst            0                       # Table walker requests started/completed, data/inst
system.cpu.dtb.stage2_mmu.stage2_tlb.walker.requestOrigin_Completed::total            0                       # Table walker requests started/completed, data/inst
system.cpu.dtb.stage2_mmu.stage2_tlb.walker.requestOrigin::total            0                       # Table walker requests started/completed, data/inst
system.cpu.dtb.stage2_mmu.stage2_tlb.walker.power_state.pwrStateResidencyTicks::UNDEFINED 162209141000                       # Cumulative time (in ticks) in various power states
system.cpu.dtb.walker.walks                         0                       # Table walker walks requested
system.cpu.dtb.walker.requestOrigin_Requested::Data            0                       # Table walker requests started/completed, data/inst
system.cpu.dtb.walker.requestOrigin_Requested::Inst            0                       # Table walker requests started/completed, data/inst
system.cpu.dtb.walker.requestOrigin_Requested::total            0                       # Table walker requests started/completed, data/inst
system.cpu.dtb.walker.requestOrigin_Completed::Data            0                       # Table walker requests started/completed, data/inst
system.cpu.dtb.walker.requestOrigin_Completed::Inst            0                       # Table walker requests started/completed, data/inst
system.cpu.dtb.walker.requestOrigin_Completed::total            0                       # Table walker requests started/completed, data/inst
system.cpu.dtb.walker.requestOrigin::total            0                       # Table walker requests started/completed, data/inst
system.cpu.dtb.walker.power_state.pwrStateResidencyTicks::UNDEFINED 162209141000                       # Cumulative time (in ticks) in various power states
system.cpu.fetch2.intInstructions            42686004                       # Number of integer instructions successfully decoded
system.cpu.fetch2.fpInstructions                    0                       # Number of floating point instructions successfully decoded
system.cpu.fetch2.vecInstructions                   0                       # Number of SIMD instructions successfully decoded
system.cpu.fetch2.loadInstructions           43475162                       # Number of memory load instructions successfully decoded
system.cpu.fetch2.storeInstructions          11024946                       # Number of memory store instructions successfully decoded
system.cpu.fetch2.amoInstructions                   0                       # Number of memory atomic instructions successfully decoded
system.cpu.icache.demand_hits::.cpu.inst     10278010                       # number of demand (read+write) hits
system.cpu.icache.demand_hits::total         10278010                       # number of demand (read+write) hits
system.cpu.icache.overall_hits::.cpu.inst     10278010                       # number of overall hits
system.cpu.icache.overall_hits::total        10278010                       # number of overall hits
system.cpu.icache.demand_misses::.cpu.inst          885                       # number of demand (read+write) misses
system.cpu.icache.demand_misses::total            885                       # number of demand (read+write) misses
system.cpu.icache.overall_misses::.cpu.inst          885                       # number of overall misses
system.cpu.icache.overall_misses::total           885                       # number of overall misses
system.cpu.icache.demand_miss_latency::.cpu.inst     76368000                       # number of demand (read+write) miss cycles
system.cpu.icache.demand_miss_latency::total     76368000                       # number of demand (read+write) miss cycles
system.cpu.icache.overall_miss_latency::.cpu.inst     76368000                       # number of overall miss cycles
system.cpu.icache.overall_miss_latency::total     76368000                       # number of overall miss cycles
system.cpu.icache.demand_accesses::.cpu.inst     10278895                       # number of demand (read+write) accesses
system.cpu.icache.demand_accesses::total     10278895                       # number of demand (read+write) accesses
system.cpu.icache.overall_accesses::.cpu.inst     10278895                       # number of overall (read+write) accesses
system.cpu.icache.overall_accesses::total     10278895                       # number of overall (read+write) accesses
system.cpu.icache.demand_miss_rate::.cpu.inst     0.000086                       # miss rate for demand accesses
system.cpu.icache.demand_miss_rate::total     0.000086                       # miss rate for demand accesses
system.cpu.icache.overall_miss_rate::.cpu.inst     0.000086                       # miss rate for overall accesses
system.cpu.icache.overall_miss_rate::total     0.000086                       # miss rate for overall accesses
system.cpu.icache.demand_avg_miss_latency::.cpu.inst 86291.525424                       # average overall miss latency
system.cpu.icache.demand_avg_miss_latency::total 86291.525424                       # average overall miss latency
system.cpu.icache.overall_avg_miss_latency::.cpu.inst 86291.525424                       # average overall miss latency
system.cpu.icache.overall_avg_miss_latency::total 86291.525424                       # average overall miss latency
system.cpu.icache.blocked_cycles::no_mshrs            0                       # number of cycles access was blocked
system.cpu.icache.blocked_cycles::no_targets            0                       # number of cycles access was blocked
system.cpu.icache.blocked::no_mshrs                 0                       # number of cycles access was blocked
system.cpu.icache.blocked::no_targets               0                       # number of cycles access was blocked
system.cpu.icache.avg_blocked_cycles::no_mshrs          nan                       # average number of cycles each access was blocked
system.cpu.icache.avg_blocked_cycles::no_targets          nan                       # average number of cycles each access was blocked
system.cpu.icache.writebacks::.writebacks          504                       # number of writebacks
system.cpu.icache.writebacks::total               504                       # number of writebacks
system.cpu.icache.demand_mshr_misses::.cpu.inst          885                       # number of demand (read+write) MSHR misses
system.cpu.icache.demand_mshr_misses::total          885                       # number of demand (read+write) MSHR misses
system.cpu.icache.overall_mshr_misses::.cpu.inst          885                       # number of overall MSHR misses
system.cpu.icache.overall_mshr_misses::total          885                       # number of overall MSHR misses
system.cpu.icache.demand_mshr_miss_latency::.cpu.inst     74598000                       # number of demand (read+write) MSHR miss cycles
system.cpu.icache.demand_mshr_miss_latency::total     74598000                       # number of demand (read+write) MSHR miss cycles
system.cpu.icache.overall_mshr_miss_latency::.cpu.inst     74598000                       # number of overall MSHR miss cycles
system.cpu.icache.overall_mshr_miss_latency::total     74598000                       # number of overall MSHR miss cycles
system.cpu.icache.demand_mshr_miss_rate::.cpu.inst     0.000086                       # mshr miss rate for demand accesses
system.cpu.icache.demand_mshr_miss_rate::total     0.000086                       # mshr miss rate for demand accesses
system.cpu.icache.overall_mshr_miss_rate::.cpu.inst     0.000086                       # mshr miss rate for overall accesses
system.cpu.icache.overall_mshr_miss_rate::total     0.000086                       # mshr miss rate for overall accesses
system.cpu.icache.demand_avg_mshr_miss_latency::.cpu.inst 84291.525424                       # average overall mshr miss latency
system.cpu.icache.demand_avg_mshr_miss_latency::total 84291.525424                       # average overall mshr miss latency
system.cpu.icache.overall_avg_mshr_miss_latency::.cpu.inst 84291.525424                       # average overall mshr miss latency
system.cpu.icache.overall_avg_mshr_miss_latency::total 84291.525424                       # average overall mshr miss latency
system.cpu.icache.replacements                    504                       # number of replacements
system.cpu.icache.ReadReq_hits::.cpu.inst     10278010                       # number of ReadReq hits
system.cpu.icache.ReadReq_hits::total        10278010                       # number of ReadReq hits
system.cpu.icache.ReadReq_misses::.cpu.inst          885                       # number of ReadReq misses
system.cpu.icache.ReadReq_misses::total           885                       # number of ReadReq misses
system.cpu.icache.ReadReq_miss_latency::.cpu.inst     76368000                       # number of ReadReq miss cycles
system.cpu.icache.ReadReq_miss_latency::total     76368000                       # number of ReadReq miss cycles
system.cpu.icache.ReadReq_accesses::.cpu.inst     10278895                       # number of ReadReq accesses(hits+misses)
system.cpu.icache.ReadReq_accesses::total     10278895                       # number of ReadReq accesses(hits+misses)
system.cpu.icache.ReadReq_miss_rate::.cpu.inst     0.000086                       # miss rate for ReadReq accesses
system.cpu.icache.ReadReq_miss_rate::total     0.000086                       # miss rate for ReadReq accesses
system.cpu.icache.ReadReq_avg_miss_latency::.cpu.inst 86291.525424                       # average ReadReq miss latency
system.cpu.icache.ReadReq_avg_miss_latency::total 86291.525424                       # average ReadReq miss latency
system.cpu.icache.ReadReq_mshr_misses::.cpu.inst          885                       # number of ReadReq MSHR misses
system.cpu.icache.ReadReq_mshr_misses::total          885                       # number of ReadReq MSHR misses
system.cpu.icache.ReadReq_mshr_miss_latency::.cpu.inst     74598000                       # number of ReadReq MSHR miss cycles
system.cpu.icache.ReadReq_mshr_miss_latency::total     74598000                       # number of ReadReq MSHR miss cycles
system.cpu.icache.ReadReq_mshr_miss_rate::.cpu.inst     0.000086                       # mshr miss rate for ReadReq accesses
system.cpu.icache.ReadReq_mshr_miss_rate::total     0.000086                       # mshr miss rate for ReadReq accesses
system.cpu.icache.ReadReq_avg_mshr_miss_latency::.cpu.inst 84291.525424                       # average ReadReq mshr miss latency
system.cpu.icache.ReadReq_avg_mshr_miss_latency::total 84291.525424                       # average ReadReq mshr miss latency
system.cpu.icache.power_state.pwrStateResidencyTicks::UNDEFINED 162209141000                       # Cumulative time (in ticks) in various power states
system.cpu.icache.tags.tagsinuse           300.097601                       # Cycle average of tags in use
system.cpu.icache.tags.total_refs            10278895                       # Total number of references to valid blocks.
system.cpu.icache.tags.sampled_refs               885                       # Sample count of references to valid blocks.
system.cpu.icache.tags.avg_refs          11614.570621                       # Average number of references to valid blocks.
system.cpu.icache.tags.warmup_cycle            108000                       # Cycle when the warmup percentage was hit.
system.cpu.icache.tags.occ_blocks::.cpu.inst   300.097601                       # Average occupied blocks per requestor
system.cpu.icache.tags.occ_percent::.cpu.inst     0.586128                       # Average percentage of cache occupancy
system.cpu.icache.tags.occ_percent::total     0.586128                       # Average percentage of cache occupancy
system.cpu.icache.tags.occ_task_id_blocks::1024          381                       # Occupied blocks per task id
system.cpu.icache.tags.age_task_id_blocks_1024::4          381                       # Occupied blocks per task id
system.cpu.icache.tags.occ_task_id_percent::1024     0.744141                       # Percentage of cache occupancy per task id
system.cpu.icache.tags.tag_accesses          10279780                       # Number of tag accesses
system.cpu.icache.tags.data_accesses         10279780                       # Number of data accesses
system.cpu.icache.tags.power_state.pwrStateResidencyTicks::UNDEFINED 162209141000                       # Cumulative time (in ticks) in various power states
system.cpu.itb.instHits                             0                       # ITB inst hits
system.cpu.itb.instMisses                           0                       # ITB inst misses
system.cpu.itb.readHits                             0                       # DTB read hits
system.cpu.itb.readMisses                           0                       # DTB read misses
system.cpu.itb.writeHits                            0                       # DTB write hits
system.cpu.itb.writeMisses                          0                       # DTB write misses
system.cpu.itb.inserts                              0                       # Number of times an entry is inserted into the TLB
system.cpu.itb.flushTlb                             0                       # Number of times complete TLB was flushed
system.cpu.itb.flushTlbMva                          0                       # Number of times TLB was flushed by MVA
system.cpu.itb.flushTlbMvaAsid                      0                       # Number of times TLB was flushed by MVA & ASID
system.cpu.itb.flushTlbAsid                         0                       # Number of times TLB was flushed by ASID
system.cpu.itb.flushedEntries                       0                       # Number of entries that have been flushed from TLB
system.cpu.itb.alignFaults                          0                       # Number of TLB faults due to alignment restrictions
system.cpu.itb.prefetchFaults                       0                       # Number of TLB faults due to prefetch
system.cpu.itb.domainFaults                         0                       # Number of TLB faults due to domain restrictions
system.cpu.itb.permsFaults                          0                       # Number of TLB faults due to permissions restrictions
system.cpu.itb.readAccesses                         0                       # DTB read accesses
system.cpu.itb.writeAccesses                        0                       # DTB write accesses
system.cpu.itb.instAccesses                         0                       # ITB inst accesses
system.cpu.itb.hits                                 0                       # Total TLB (inst and data) hits
system.cpu.itb.misses                               0                       # Total TLB (inst and data) misses
system.cpu.itb.accesses                             0                       # Total TLB (inst and data) accesses
system.cpu.itb.stage2_mmu.stage2_tlb.instHits            0                       # ITB inst hits
system.cpu.itb.stage2_mmu.stage2_tlb.instMisses            0                       # ITB inst misses
system.cpu.itb.stage2_mmu.stage2_tlb.readHits            0                       # DTB read hits
system.cpu.itb.stage2_mmu.stage2_tlb.readMisses            0                       # DTB read misses
system.cpu.itb.stage2_mmu.stage2_tlb.writeHits            0                       # DTB write hits
system.cpu.itb.stage2_mmu.stage2_tlb.writeMisses            0                       # DTB write misses
system.cpu.itb.stage2_mmu.stage2_tlb.inserts            0                       # Number of times an entry is inserted into the TLB
system.cpu.itb.stage2_mmu.stage2_tlb.flushTlb            0                       # Number of times complete TLB was flushed
system.cpu.itb.stage2_mmu.stage2_tlb.flushTlbMva            0                       # Number of times TLB was flushed by MVA
system.cpu.itb.stage2_mmu.stage2_tlb.flushTlbMvaAsid            0                       # Number of times TLB was flushed by MVA & ASID
system.cpu.itb.stage2_mmu.stage2_tlb.flushTlbAsid            0                       # Number of times TLB was flushed by ASID
system.cpu.itb.stage2_mmu.stage2_tlb.flushedEntries            0                       # Number of entries that have been flushed from TLB
system.cpu.itb.stage2_mmu.stage2_tlb.alignFaults            0                       # Number of TLB faults due to alignment restrictions
system.cpu.itb.stage2_mmu.stage2_tlb.prefetchFaults            0                       # Number of TLB faults due to prefetch
system.cpu.itb.stage2_mmu.stage2_tlb.domainFaults            0                       # Number of TLB faults due to domain restrictions
system.cpu.itb.stage2_mmu.stage2_tlb.permsFaults            0                       # Number of TLB faults due to permissions restrictions
system.cpu.itb.stage2_mmu.stage2_tlb.readAccesses            0                       # DTB read accesses
system.cpu.itb.stage2_mmu.stage2_tlb.writeAccesses            0                       # DTB write accesses
system.cpu.itb.stage2_mmu.stage2_tlb.instAccesses            0                       # ITB inst accesses
system.cpu.itb.stage2_mmu.stage2_tlb.hits            0                       # Total TLB (inst and data) hits
system.cpu.itb.stage2_mmu.stage2_tlb.misses            0                       # Total TLB (inst and data) misses
system.cpu.itb.stage2_mmu.stage2_tlb.accesses            0                       # Total TLB (inst and data) accesses
system.cpu.itb.stage2_mmu.stage2_tlb.walker.walks            0                       # Table walker walks requested
system.cpu.itb.stage2_mmu.stage2_tlb.walker.requestOrigin_Requested::Data            0                       # Table walker requests started/completed, data/inst
system.cpu.itb.stage2_mmu.stage2_tlb.walker.requestOrigin_Requested::Inst            0                       # Table walker requests started/completed, data/inst
system.cpu.itb.stage2_mmu.stage2_tlb.walker.requestOrigin_Requested::total            0                       # Table walker requests started/completed, data/inst
system.cpu.itb.stage2_mmu.stage2_tlb.walker.requestOrigin_Completed::Data            0                       # Table walker requests started/completed, data/inst
system.cpu.itb.stage2_mmu.stage2_tlb.walker.requestOrigin_Completed::Inst            0                       # Table walker requests started/completed, data/inst
system.cpu.itb.stage2_mmu.stage2_tlb.walker.requestOrigin_Completed::total            0                       # Table walker requests started/completed, data/inst
system.cpu.itb.stage2_mmu.stage2_tlb.walker.requestOrigin::total            0                       # Table walker requests started/completed, data/inst
system.cpu.itb.stage2_mmu.stage2_tlb.walker.power_state.pwrStateResidencyTicks::UNDEFINED 162209141000                       # Cumulative time (in ticks) in various power states
system.cpu.itb.walker.walks                         0                       # Table walker walks requested
system.cpu.itb.walker.requestOrigin_Requested::Data            0                       # Table walker requests started/completed, data/inst
system.cpu.itb.walker.requestOrigin_Requested::Inst            0                       # Table walker requests started/completed, data/inst
system.cpu.itb.walker.requestOrigin_Requested::total            0                       # Table walker requests started/completed, data/inst
system.cpu.itb.walker.requestOrigin_Completed::Data            0                       # Table walker requests started/completed, data/inst
system.cpu.itb.walker.requestOrigin_Completed::Inst            0                       # Table walker requests started/completed, data/inst
system.cpu.itb.walker.requestOrigin_Completed::total            0                       # Table walker requests started/completed, data/inst
system.cpu.itb.walker.requestOrigin::total            0                       # Table walker requests started/completed, data/inst
system.cpu.itb.walker.power_state.pwrStateResidencyTicks::UNDEFINED 162209141000                       # Cumulative time (in ticks) in various power states
system.cpu.power_state.pwrStateResidencyTicks::ON 162209141000                       # Cumulative time (in ticks) in various power states
system.cpu.thread0.numInsts                 100000001                       # Number of Instructions committed
system.cpu.thread0.numOps                   100196356                       # Number of Ops committed
system.cpu.thread0.numMemRefs                       0                       # Number of Memory References
system.cpu_clk_domain.clock                      1000                       # Clock period in ticks
system.cpu_voltage_domain.voltage                   1                       # Voltage in Volts
system.l2.demand_hits::.cpu.inst                  198                       # number of demand (read+write) hits
system.l2.demand_hits::.cpu.data               580101                       # number of demand (read+write) hits
system.l2.demand_hits::total                   580299                       # number of demand (read+write) hits
system.l2.overall_hits::.cpu.inst                 198                       # number of overall hits
system.l2.overall_hits::.cpu.data              580101                       # number of overall hits
system.l2.overall_hits::total                  580299                       # number of overall hits
system.l2.demand_misses::.cpu.inst                687                       # number of demand (read+write) misses
system.l2.demand_misses::.cpu.data             201147                       # number of demand (read+write) misses
system.l2.demand_misses::total                 201834                       # number of demand (read+write) misses
system.l2.overall_misses::.cpu.inst               687                       # number of overall misses
system.l2.overall_misses::.cpu.data            201147                       # number of overall misses
system.l2.overall_misses::total                201834                       # number of overall misses
system.l2.demand_miss_latency::.cpu.inst     67735000                       # number of demand (read+write) miss cycles
system.l2.demand_miss_latency::.cpu.data  20930647000                       # number of demand (read+write) miss cycles
system.l2.demand_miss_latency::total      20998382000                       # number of demand (read+write) miss cycles
system.l2.overall_miss_latency::.cpu.inst     67735000                       # number of overall miss cycles
system.l2.overall_miss_latency::.cpu.data  20930647000                       # number of overall miss cycles
system.l2.overall_miss_latency::total     20998382000                       # number of overall miss cycles
system.l2.demand_accesses::.cpu.inst              885                       # number of demand (read+write) accesses
system.l2.demand_accesses::.cpu.data           781248                       # number of demand (read+write) accesses
system.l2.demand_accesses::total               782133                       # number of demand (read+write) accesses
system.l2.overall_accesses::.cpu.inst             885                       # number of overall (read+write) accesses
system.l2.overall_accesses::.cpu.data          781248                       # number of overall (read+write) accesses
system.l2.overall_accesses::total              782133                       # number of overall (read+write) accesses
system.l2.demand_miss_rate::.cpu.inst        0.776271                       # miss rate for demand accesses
system.l2.demand_miss_rate::.cpu.data        0.257469                       # miss rate for demand accesses
system.l2.demand_miss_rate::total            0.258056                       # miss rate for demand accesses
system.l2.overall_miss_rate::.cpu.inst       0.776271                       # miss rate for overall accesses
system.l2.overall_miss_rate::.cpu.data       0.257469                       # miss rate for overall accesses
system.l2.overall_miss_rate::total           0.258056                       # miss rate for overall accesses
system.l2.demand_avg_miss_latency::.cpu.inst 98595.342067                       # average overall miss latency
system.l2.demand_avg_miss_latency::.cpu.data 104056.471138                       # average overall miss latency
system.l2.demand_avg_miss_latency::total 104037.882616                       # average overall miss latency
system.l2.overall_avg_miss_latency::.cpu.inst 98595.342067                       # average overall miss latency
system.l2.overall_avg_miss_latency::.cpu.data 104056.471138                       # average overall miss latency
system.l2.overall_avg_miss_latency::total 104037.882616                       # average overall miss latency
system.l2.blocked_cycles::no_mshrs                  0                       # number of cycles access was blocked
system.l2.blocked_cycles::no_targets                0                       # number of cycles access was blocked
system.l2.blocked::no_mshrs                         0                       # number of cycles access was blocked
system.l2.blocked::no_targets                       0                       # number of cycles access was blocked
system.l2.avg_blocked_cycles::no_mshrs            nan                       # average number of cycles each access was blocked
system.l2.avg_blocked_cycles::no_targets          nan                       # average number of cycles each access was blocked
system.l2.writebacks::.writebacks              111045                       # number of writebacks
system.l2.writebacks::total                    111045                       # number of writebacks
system.l2.demand_mshr_hits::.cpu.data               6                       # number of demand (read+write) MSHR hits
system.l2.demand_mshr_hits::total                   6                       # number of demand (read+write) MSHR hits
system.l2.overall_mshr_hits::.cpu.data              6                       # number of overall MSHR hits
system.l2.overall_mshr_hits::total                  6                       # number of overall MSHR hits
system.l2.demand_mshr_misses::.cpu.inst           687                       # number of demand (read+write) MSHR misses
system.l2.demand_mshr_misses::.cpu.data        201141                       # number of demand (read+write) MSHR misses
system.l2.demand_mshr_misses::total            201828                       # number of demand (read+write) MSHR misses
system.l2.overall_mshr_misses::.cpu.inst          687                       # number of overall MSHR misses
system.l2.overall_mshr_misses::.cpu.data       201141                       # number of overall MSHR misses
system.l2.overall_mshr_misses::total           201828                       # number of overall MSHR misses
system.l2.demand_mshr_miss_latency::.cpu.inst     53995000                       # number of demand (read+write) MSHR miss cycles
system.l2.demand_mshr_miss_latency::.cpu.data  16907367000                       # number of demand (read+write) MSHR miss cycles
system.l2.demand_mshr_miss_latency::total  16961362000                       # number of demand (read+write) MSHR miss cycles
system.l2.overall_mshr_miss_latency::.cpu.inst     53995000                       # number of overall MSHR miss cycles
system.l2.overall_mshr_miss_latency::.cpu.data  16907367000                       # number of overall MSHR miss cycles
system.l2.overall_mshr_miss_latency::total  16961362000                       # number of overall MSHR miss cycles
system.l2.demand_mshr_miss_rate::.cpu.inst     0.776271                       # mshr miss rate for demand accesses
system.l2.demand_mshr_miss_rate::.cpu.data     0.257461                       # mshr miss rate for demand accesses
system.l2.demand_mshr_miss_rate::total       0.258048                       # mshr miss rate for demand accesses
system.l2.overall_mshr_miss_rate::.cpu.inst     0.776271                       # mshr miss rate for overall accesses
system.l2.overall_mshr_miss_rate::.cpu.data     0.257461                       # mshr miss rate for overall accesses
system.l2.overall_mshr_miss_rate::total      0.258048                       # mshr miss rate for overall accesses
system.l2.demand_avg_mshr_miss_latency::.cpu.inst 78595.342067                       # average overall mshr miss latency
system.l2.demand_avg_mshr_miss_latency::.cpu.data 84057.288171                       # average overall mshr miss latency
system.l2.demand_avg_mshr_miss_latency::total 84038.696316                       # average overall mshr miss latency
system.l2.overall_avg_mshr_miss_latency::.cpu.inst 78595.342067                       # average overall mshr miss latency
system.l2.overall_avg_mshr_miss_latency::.cpu.data 84057.288171                       # average overall mshr miss latency
system.l2.overall_avg_mshr_miss_latency::total 84038.696316                       # average overall mshr miss latency
system.l2.replacements                         169200                       # number of replacements
system.l2.WritebackDirty_hits::.writebacks       699151                       # number of WritebackDirty hits
system.l2.WritebackDirty_hits::total           699151                       # number of WritebackDirty hits
system.l2.WritebackDirty_accesses::.writebacks       699151                       # number of WritebackDirty accesses(hits+misses)
system.l2.WritebackDirty_accesses::total       699151                       # number of WritebackDirty accesses(hits+misses)
system.l2.WritebackClean_hits::.writebacks          483                       # number of WritebackClean hits
system.l2.WritebackClean_hits::total              483                       # number of WritebackClean hits
system.l2.WritebackClean_accesses::.writebacks          483                       # number of WritebackClean accesses(hits+misses)
system.l2.WritebackClean_accesses::total          483                       # number of WritebackClean accesses(hits+misses)
system.l2.ReadExReq_hits::.cpu.data            186285                       # number of ReadExReq hits
system.l2.ReadExReq_hits::total                186285                       # number of ReadExReq hits
system.l2.ReadExReq_misses::.cpu.data          136085                       # number of ReadExReq misses
system.l2.ReadExReq_misses::total              136085                       # number of ReadExReq misses
system.l2.ReadExReq_miss_latency::.cpu.data  14424443000                       # number of ReadExReq miss cycles
system.l2.ReadExReq_miss_latency::total   14424443000                       # number of ReadExReq miss cycles
system.l2.ReadExReq_accesses::.cpu.data        322370                       # number of ReadExReq accesses(hits+misses)
system.l2.ReadExReq_accesses::total            322370                       # number of ReadExReq accesses(hits+misses)
system.l2.ReadExReq_miss_rate::.cpu.data     0.422139                       # miss rate for ReadExReq accesses
system.l2.ReadExReq_miss_rate::total         0.422139                       # miss rate for ReadExReq accesses
system.l2.ReadExReq_avg_miss_latency::.cpu.data 105995.833486                       # average ReadExReq miss latency
system.l2.ReadExReq_avg_miss_latency::total 105995.833486                       # average ReadExReq miss latency
system.l2.ReadExReq_mshr_misses::.cpu.data       136085                       # number of ReadExReq MSHR misses
system.l2.ReadExReq_mshr_misses::total         136085                       # number of ReadExReq MSHR misses
system.l2.ReadExReq_mshr_miss_latency::.cpu.data  11702743000                       # number of ReadExReq MSHR miss cycles
system.l2.ReadExReq_mshr_miss_latency::total  11702743000                       # number of ReadExReq MSHR miss cycles
system.l2.ReadExReq_mshr_miss_rate::.cpu.data     0.422139                       # mshr miss rate for ReadExReq accesses
system.l2.ReadExReq_mshr_miss_rate::total     0.422139                       # mshr miss rate for ReadExReq accesses
system.l2.ReadExReq_avg_mshr_miss_latency::.cpu.data 85995.833486                       # average ReadExReq mshr miss latency
system.l2.ReadExReq_avg_mshr_miss_latency::total 85995.833486                       # average ReadExReq mshr miss latency
system.l2.ReadCleanReq_hits::.cpu.inst            198                       # number of ReadCleanReq hits
system.l2.ReadCleanReq_hits::total                198                       # number of ReadCleanReq hits
system.l2.ReadCleanReq_misses::.cpu.inst          687                       # number of ReadCleanReq misses
system.l2.ReadCleanReq_misses::total              687                       # number of ReadCleanReq misses
system.l2.ReadCleanReq_miss_latency::.cpu.inst     67735000                       # number of ReadCleanReq miss cycles
system.l2.ReadCleanReq_miss_latency::total     67735000                       # number of ReadCleanReq miss cycles
system.l2.ReadCleanReq_accesses::.cpu.inst          885                       # number of ReadCleanReq accesses(hits+misses)
system.l2.ReadCleanReq_accesses::total            885                       # number of ReadCleanReq accesses(hits+misses)
system.l2.ReadCleanReq_miss_rate::.cpu.inst     0.776271                       # miss rate for ReadCleanReq accesses
system.l2.ReadCleanReq_miss_rate::total      0.776271                       # miss rate for ReadCleanReq accesses
system.l2.ReadCleanReq_avg_miss_latency::.cpu.inst 98595.342067                       # average ReadCleanReq miss latency
system.l2.ReadCleanReq_avg_miss_latency::total 98595.342067                       # average ReadCleanReq miss latency
system.l2.ReadCleanReq_mshr_misses::.cpu.inst          687                       # number of ReadCleanReq MSHR misses
system.l2.ReadCleanReq_mshr_misses::total          687                       # number of ReadCleanReq MSHR misses
system.l2.ReadCleanReq_mshr_miss_latency::.cpu.inst     53995000                       # number of ReadCleanReq MSHR miss cycles
system.l2.ReadCleanReq_mshr_miss_latency::total     53995000                       # number of ReadCleanReq MSHR miss cycles
system.l2.ReadCleanReq_mshr_miss_rate::.cpu.inst     0.776271                       # mshr miss rate for ReadCleanReq accesses
system.l2.ReadCleanReq_mshr_miss_rate::total     0.776271                       # mshr miss rate for ReadCleanReq accesses
system.l2.ReadCleanReq_avg_mshr_miss_latency::.cpu.inst 78595.342067                       # average ReadCleanReq mshr miss latency
system.l2.ReadCleanReq_avg_mshr_miss_latency::total 78595.342067                       # average ReadCleanReq mshr miss latency
system.l2.ReadSharedReq_hits::.cpu.data        393816                       # number of ReadSharedReq hits
system.l2.ReadSharedReq_hits::total            393816                       # number of ReadSharedReq hits
system.l2.ReadSharedReq_misses::.cpu.data        65062                       # number of ReadSharedReq misses
system.l2.ReadSharedReq_misses::total           65062                       # number of ReadSharedReq misses
system.l2.ReadSharedReq_miss_latency::.cpu.data   6506204000                       # number of ReadSharedReq miss cycles
system.l2.ReadSharedReq_miss_latency::total   6506204000                       # number of ReadSharedReq miss cycles
system.l2.ReadSharedReq_accesses::.cpu.data       458878                       # number of ReadSharedReq accesses(hits+misses)
system.l2.ReadSharedReq_accesses::total        458878                       # number of ReadSharedReq accesses(hits+misses)
system.l2.ReadSharedReq_miss_rate::.cpu.data     0.141785                       # miss rate for ReadSharedReq accesses
system.l2.ReadSharedReq_miss_rate::total     0.141785                       # miss rate for ReadSharedReq accesses
system.l2.ReadSharedReq_avg_miss_latency::.cpu.data 100000.061480                       # average ReadSharedReq miss latency
system.l2.ReadSharedReq_avg_miss_latency::total 100000.061480                       # average ReadSharedReq miss latency
system.l2.ReadSharedReq_mshr_hits::.cpu.data            6                       # number of ReadSharedReq MSHR hits
system.l2.ReadSharedReq_mshr_hits::total            6                       # number of ReadSharedReq MSHR hits
system.l2.ReadSharedReq_mshr_misses::.cpu.data        65056                       # number of ReadSharedReq MSHR misses
system.l2.ReadSharedReq_mshr_misses::total        65056                       # number of ReadSharedReq MSHR misses
system.l2.ReadSharedReq_mshr_miss_latency::.cpu.data   5204624000                       # number of ReadSharedReq MSHR miss cycles
system.l2.ReadSharedReq_mshr_miss_latency::total   5204624000                       # number of ReadSharedReq MSHR miss cycles
system.l2.ReadSharedReq_mshr_miss_rate::.cpu.data     0.141772                       # mshr miss rate for ReadSharedReq accesses
system.l2.ReadSharedReq_mshr_miss_rate::total     0.141772                       # mshr miss rate for ReadSharedReq accesses
system.l2.ReadSharedReq_avg_mshr_miss_latency::.cpu.data 80002.213478                       # average ReadSharedReq mshr miss latency
system.l2.ReadSharedReq_avg_mshr_miss_latency::total 80002.213478                       # average ReadSharedReq mshr miss latency
system.l2.power_state.pwrStateResidencyTicks::UNDEFINED 162209141000                       # Cumulative time (in ticks) in various power states
system.l2.tags.tagsinuse                 32154.260285                       # Cycle average of tags in use
system.l2.tags.total_refs                     1562191                       # Total number of references to valid blocks.
system.l2.tags.sampled_refs                    201968                       # Sample count of references to valid blocks.
system.l2.tags.avg_refs                      7.734844                       # Average number of references to valid blocks.
system.l2.tags.warmup_cycle                     87000                       # Cycle when the warmup percentage was hit.
system.l2.tags.occ_blocks::.writebacks      52.307565                       # Average occupied blocks per requestor
system.l2.tags.occ_blocks::.cpu.inst        92.483350                       # Average occupied blocks per requestor
system.l2.tags.occ_blocks::.cpu.data     32009.469371                       # Average occupied blocks per requestor
system.l2.tags.occ_percent::.writebacks      0.001596                       # Average percentage of cache occupancy
system.l2.tags.occ_percent::.cpu.inst        0.002822                       # Average percentage of cache occupancy
system.l2.tags.occ_percent::.cpu.data        0.976851                       # Average percentage of cache occupancy
system.l2.tags.occ_percent::total            0.981270                       # Average percentage of cache occupancy
system.l2.tags.occ_task_id_blocks::1024         32768                       # Occupied blocks per task id
system.l2.tags.age_task_id_blocks_1024::1           21                       # Occupied blocks per task id
system.l2.tags.age_task_id_blocks_1024::2          609                       # Occupied blocks per task id
system.l2.tags.age_task_id_blocks_1024::3         8229                       # Occupied blocks per task id
system.l2.tags.age_task_id_blocks_1024::4        23909                       # Occupied blocks per task id
system.l2.tags.occ_task_id_percent::1024            1                       # Percentage of cache occupancy per task id
system.l2.tags.tag_accesses                  12699544                       # Number of tag accesses
system.l2.tags.data_accesses                 12699544                       # Number of data accesses
system.l2.tags.power_state.pwrStateResidencyTicks::UNDEFINED 162209141000                       # Cumulative time (in ticks) in various power states
system.mem_ctrls.avgPriority_.writebacks::samples    111045.00                       # Average QoS priority value for accepted requests
system.mem_ctrls.avgPriority_.cpu.inst::samples       687.00                       # Average QoS priority value for accepted requests
system.mem_ctrls.avgPriority_.cpu.data::samples    201103.00                       # Average QoS priority value for accepted requests
system.mem_ctrls.priorityMinLatency      0.000000018750                       # per QoS priority minimum request to response latency (s)
system.mem_ctrls.priorityMaxLatency      0.012689048500                       # per QoS priority maximum request to response latency (s)
system.mem_ctrls.numReadWriteTurnArounds         6614                       # Number of turnarounds from READ to WRITE
system.mem_ctrls.numWriteReadTurnArounds         6614                       # Number of turnarounds from WRITE to READ
system.mem_ctrls.numStayReadState              547278                       # Number of times bus staying in READ state
system.mem_ctrls.numStayWriteState             104563                       # Number of times bus staying in WRITE state
system.mem_ctrls.readReqs                      201828                       # Number of read requests accepted
system.mem_ctrls.writeReqs                     111045                       # Number of write requests accepted
system.mem_ctrls.readBursts                    201828                       # Number of controller read bursts, including those serviced by the write queue
system.mem_ctrls.writeBursts                   111045                       # Number of controller write bursts, including those merged in the write queue
system.mem_ctrls.servicedByWrQ                     38                       # Number of controller read bursts serviced by the write queue
system.mem_ctrls.mergedWrBursts                     0                       # Number of controller write bursts merged with an existing one
system.mem_ctrls.neitherReadNorWriteReqs            0                       # Number of requests that are neither read nor write
system.mem_ctrls.avgRdQLen                       1.04                       # Average read queue length when enqueuing
system.mem_ctrls.avgWrQLen                      24.70                       # Average write queue length when enqueuing
system.mem_ctrls.numRdRetry                         0                       # Number of times read queue was full causing retry
system.mem_ctrls.numWrRetry                         0                       # Number of times write queue was full causing retry
system.mem_ctrls.readPktSize::0                     0                       # Read request sizes (log2)
system.mem_ctrls.readPktSize::1                     0                       # Read request sizes (log2)
system.mem_ctrls.readPktSize::2                     0                       # Read request sizes (log2)
system.mem_ctrls.readPktSize::3                     0                       # Read request sizes (log2)
system.mem_ctrls.readPktSize::4                     0                       # Read request sizes (log2)
system.mem_ctrls.readPktSize::5                     0                       # Read request sizes (log2)
system.mem_ctrls.readPktSize::6                201828                       # Read request sizes (log2)
system.mem_ctrls.writePktSize::0                    0                       # Write request sizes (log2)
system.mem_ctrls.writePktSize::1                    0                       # Write request sizes (log2)
system.mem_ctrls.writePktSize::2                    0                       # Write request sizes (log2)
system.mem_ctrls.writePktSize::3                    0                       # Write request sizes (log2)
system.mem_ctrls.writePktSize::4                    0                       # Write request sizes (log2)
system.mem_ctrls.writePktSize::5                    0                       # Write request sizes (log2)
system.mem_ctrls.writePktSize::6               111045                       # Write request sizes (log2)
system.mem_ctrls.rdQLenPdf::0                  152833                       # What read queue length does an incoming req see
system.mem_ctrls.rdQLenPdf::1                   48440                       # What read queue length does an incoming req see
system.mem_ctrls.rdQLenPdf::2                     310                       # What read queue length does an incoming req see
system.mem_ctrls.rdQLenPdf::3                     206                       # What read queue length does an incoming req see
system.mem_ctrls.rdQLenPdf::4                       1                       # What read queue length does an incoming req see
system.mem_ctrls.rdQLenPdf::5                       0                       # What read queue length does an incoming req see
system.mem_ctrls.rdQLenPdf::6                       0                       # What read queue length does an incoming req see
system.mem_ctrls.rdQLenPdf::7                       0                       # What read queue length does an incoming req see
system.mem_ctrls.rdQLenPdf::8                       0                       # What read queue length does an incoming req see
system.mem_ctrls.rdQLenPdf::9                       0                       # What read queue length does an incoming req see
system.mem_ctrls.rdQLenPdf::10                      0                       # What read queue length does an incoming req see
system.mem_ctrls.rdQLenPdf::11                      0                       # What read queue length does an incoming req see
system.mem_ctrls.rdQLenPdf::12                      0                       # What read queue length does an incoming req see
[...]
system.mem_ctrls.dram.bw_write::.writebacks     43813067                       # Write bandwidth from this memory (bytes/s)
system.mem_ctrls.dram.bw_write::total        43813067                       # Write bandwidth from this memory (bytes/s)
system.mem_ctrls.dram.bw_total::.writebacks     43813067                       # Total bandwidth to/from this memory (bytes/s)
system.mem_ctrls.dram.bw_total::.cpu.inst       271057                       # Total bandwidth to/from this memory (bytes/s)
system.mem_ctrls.dram.bw_total::.cpu.data     79360657                       # Total bandwidth to/from this memory (bytes/s)
system.mem_ctrls.dram.bw_total::total       123444782                       # Total bandwidth to/from this memory (bytes/s)
system.mem_ctrls.dram.readBursts               201790                       # Number of DRAM read bursts
system.mem_ctrls.dram.writeBursts              111019                       # Number of DRAM write bursts
system.mem_ctrls.dram.perBankRdBursts::0        12903                       # Per bank write bursts
system.mem_ctrls.dram.perBankRdBursts::1        12869                       # Per bank write bursts
system.mem_ctrls.dram.perBankRdBursts::2        12783                       # Per bank write bursts
system.mem_ctrls.dram.perBankRdBursts::3        12536                       # Per bank write bursts
system.mem_ctrls.dram.perBankRdBursts::4        12593                       # Per bank write bursts
system.mem_ctrls.dram.perBankRdBursts::5        12355                       # Per bank write bursts
system.mem_ctrls.dram.perBankRdBursts::6        12584                       # Per bank write bursts
system.mem_ctrls.dram.perBankRdBursts::7        12368                       # Per bank write bursts
system.mem_ctrls.dram.perBankRdBursts::8        12462                       # Per bank write bursts
system.mem_ctrls.dram.perBankRdBursts::9        12130                       # Per bank write bursts
system.mem_ctrls.dram.perBankRdBursts::10        12588                       # Per bank write bursts
system.mem_ctrls.dram.perBankRdBursts::11        12634                       # Per bank write bursts
system.mem_ctrls.dram.perBankRdBursts::12        12780                       # Per bank write bursts
system.mem_ctrls.dram.perBankRdBursts::13        12738                       # Per bank write bursts
system.mem_ctrls.dram.perBankRdBursts::14        12794                       # Per bank write bursts
system.mem_ctrls.dram.perBankRdBursts::15        12673                       # Per bank write bursts
system.mem_ctrls.dram.perBankWrBursts::0         7048                       # Per bank write bursts
system.mem_ctrls.dram.perBankWrBursts::1         7154                       # Per bank write bursts
system.mem_ctrls.dram.perBankWrBursts::2         7058                       # Per bank write bursts
system.mem_ctrls.dram.perBankWrBursts::3         6940                       # Per bank write bursts
system.mem_ctrls.dram.perBankWrBursts::4         7009                       # Per bank write bursts
system.mem_ctrls.dram.perBankWrBursts::5         6935                       # Per bank write bursts
system.mem_ctrls.dram.perBankWrBursts::6         7122                       # Per bank write bursts
system.mem_ctrls.dram.perBankWrBursts::7         6841                       # Per bank write bursts
system.mem_ctrls.dram.perBankWrBursts::8         6787                       # Per bank write bursts
system.mem_ctrls.dram.perBankWrBursts::9         6491                       # Per bank write bursts
system.mem_ctrls.dram.perBankWrBursts::10         6879                       # Per bank write bursts
system.mem_ctrls.dram.perBankWrBursts::11         6909                       # Per bank write bursts
system.mem_ctrls.dram.perBankWrBursts::12         6989                       # Per bank write bursts
system.mem_ctrls.dram.perBankWrBursts::13         6939                       # Per bank write bursts
system.mem_ctrls.dram.perBankWrBursts::14         6996                       # Per bank write bursts
system.mem_ctrls.dram.perBankWrBursts::15         6922                       # Per bank write bursts
system.mem_ctrls.dram.totQLat              2798374750                       # Total ticks spent queuing
system.mem_ctrls.dram.totBusLat            1008950000                       # Total ticks spent in databus transfers
system.mem_ctrls.dram.totMemAccLat         6581937250                       # Total ticks spent from burst creation until serviced by the DRAM
system.mem_ctrls.dram.avgQLat                13867.76                       # Average queueing delay per DRAM burst
system.mem_ctrls.dram.avgBusLat               5000.00                       # Average bus latency per DRAM burst
system.mem_ctrls.dram.avgMemAccLat           32617.76                       # Average memory access latency per DRAM burst
system.mem_ctrls.dram.readRowHits              132427                       # Number of row buffer hits during reads
system.mem_ctrls.dram.writeRowHits              69781                       # Number of row buffer hits during writes
system.mem_ctrls.dram.readRowHitRate            65.63                       # Row buffer hit rate for reads
system.mem_ctrls.dram.writeRowHitRate           62.86                       # Row buffer hit rate for writes
system.mem_ctrls.dram.bytesPerActivate::samples       110601                       # Bytes accessed per row activation
system.mem_ctrls.dram.bytesPerActivate::mean   181.008996                       # Bytes accessed per row activation
system.mem_ctrls.dram.bytesPerActivate::gmean   107.397037                       # Bytes accessed per row activation
system.mem_ctrls.dram.bytesPerActivate::stdev   245.377146                       # Bytes accessed per row activation
system.mem_ctrls.dram.bytesPerActivate::0-127        76198     68.89%     68.89% # Bytes accessed per row activation
system.mem_ctrls.dram.bytesPerActivate::128-255        12079     10.92%     79.82% # Bytes accessed per row activation
system.mem_ctrls.dram.bytesPerActivate::256-383         5239      4.74%     84.55% # Bytes accessed per row activation
system.mem_ctrls.dram.bytesPerActivate::384-511         1270      1.15%     85.70% # Bytes accessed per row activation
system.mem_ctrls.dram.bytesPerActivate::512-639         8772      7.93%     93.63% # Bytes accessed per row activation
system.mem_ctrls.dram.bytesPerActivate::640-767          683      0.62%     94.25% # Bytes accessed per row activation
system.mem_ctrls.dram.bytesPerActivate::768-895          475      0.43%     94.68% # Bytes accessed per row activation
system.mem_ctrls.dram.bytesPerActivate::896-1023          454      0.41%     95.09% # Bytes accessed per row activation
system.mem_ctrls.dram.bytesPerActivate::1024-1151         5431      4.91%    100.00% # Bytes accessed per row activation
system.mem_ctrls.dram.bytesPerActivate::total       110601                       # Bytes accessed per row activation
system.mem_ctrls.dram.bytesRead              12914560                       # Total number of bytes read from DRAM
system.mem_ctrls.dram.bytesWritten            7105216                       # Total number of bytes written to DRAM
system.mem_ctrls.dram.avgRdBW               79.616721                       # Average DRAM read bandwidth in MiBytes/s
system.mem_ctrls.dram.avgWrBW               43.802809                       # Average DRAM write bandwidth in MiBytes/s
system.mem_ctrls.dram.peakBW                 12800.00                       # Theoretical peak bandwidth in MiByte/s
system.mem_ctrls.dram.busUtil                    0.96                       # Data bus utilization in percentage
system.mem_ctrls.dram.busUtilRead                0.62                       # Data bus utilization in percentage for reads
system.mem_ctrls.dram.busUtilWrite               0.34                       # Data bus utilization in percentage for writes
system.mem_ctrls.dram.pageHitRate               64.64                       # Row buffer hit rate, read and write combined
system.mem_ctrls.dram.power_state.pwrStateResidencyTicks::UNDEFINED 162209141000                       # Cumulative time (in ticks) in various power states
system.mem_ctrls.dram.rank0.actEnergy       397962180                       # Energy for activate commands per rank (pJ)
system.mem_ctrls.dram.rank0.preEnergy       211521915                       # Energy for precharge commands per rank (pJ)
system.mem_ctrls.dram.rank0.readEnergy      721075740                       # Energy for read commands per rank (pJ)
system.mem_ctrls.dram.rank0.writeEnergy     292878540                       # Energy for write commands per rank (pJ)
system.mem_ctrls.dram.rank0.refreshEnergy 12804180480.000002                       # Energy for refresh commands per rank (pJ)
system.mem_ctrls.dram.rank0.actBackEnergy  33315413580                       # Energy for active background per rank (pJ)
system.mem_ctrls.dram.rank0.preBackEnergy  34233225120                       # Energy for precharge background per rank (pJ)
system.mem_ctrls.dram.rank0.actPowerDownEnergy            0                       # Energy for active power-down per rank (pJ)
system.mem_ctrls.dram.rank0.prePowerDownEnergy            0                       # Energy for precharge power-down per rank (pJ)
system.mem_ctrls.dram.rank0.selfRefreshEnergy            0                       # Energy for self refresh per rank (pJ)
system.mem_ctrls.dram.rank0.totalEnergy   81976257555                       # Total energy per rank (pJ)
system.mem_ctrls.dram.rank0.averagePower   505.373847                       # Core power per rank (mW)
system.mem_ctrls.dram.rank0.totalIdleTime            0                       # Total Idle time Per DRAM Rank
system.mem_ctrls.dram.rank0.pwrStateTime::IDLE  88648526250                       # Time in different power states
system.mem_ctrls.dram.rank0.pwrStateTime::REF   5416320000                       # Time in different power states
system.mem_ctrls.dram.rank0.pwrStateTime::SREF            0                       # Time in different power states
system.mem_ctrls.dram.rank0.pwrStateTime::PRE_PDN            0                       # Time in different power states
system.mem_ctrls.dram.rank0.pwrStateTime::ACT  68144294750                       # Time in different power states
system.mem_ctrls.dram.rank0.pwrStateTime::ACT_PDN            0                       # Time in different power states
system.mem_ctrls.dram.rank1.actEnergy       391728960                       # Energy for activate commands per rank (pJ)
system.mem_ctrls.dram.rank1.preEnergy       208208880                       # Energy for precharge commands per rank (pJ)
system.mem_ctrls.dram.rank1.readEnergy      719704860                       # Energy for read commands per rank (pJ)
system.mem_ctrls.dram.rank1.writeEnergy     286640640                       # Energy for write commands per rank (pJ)
system.mem_ctrls.dram.rank1.refreshEnergy 12804180480.000002                       # Energy for refresh commands per rank (pJ)
system.mem_ctrls.dram.rank1.actBackEnergy  32862560550                       # Energy for active background per rank (pJ)
system.mem_ctrls.dram.rank1.preBackEnergy  34614575040                       # Energy for precharge background per rank (pJ)
system.mem_ctrls.dram.rank1.actPowerDownEnergy            0                       # Energy for active power-down per rank (pJ)
system.mem_ctrls.dram.rank1.prePowerDownEnergy            0                       # Energy for precharge power-down per rank (pJ)
system.mem_ctrls.dram.rank1.selfRefreshEnergy            0                       # Energy for self refresh per rank (pJ)
system.mem_ctrls.dram.rank1.totalEnergy   81887599410                       # Total energy per rank (pJ)
system.mem_ctrls.dram.rank1.averagePower   504.827280                       # Core power per rank (mW)
system.mem_ctrls.dram.rank1.totalIdleTime            0                       # Total Idle time Per DRAM Rank
system.mem_ctrls.dram.rank1.pwrStateTime::IDLE  89643316500                       # Time in different power states
system.mem_ctrls.dram.rank1.pwrStateTime::REF   5416320000                       # Time in different power states
system.mem_ctrls.dram.rank1.pwrStateTime::SREF            0                       # Time in different power states
system.mem_ctrls.dram.rank1.pwrStateTime::PRE_PDN            0                       # Time in different power states
system.mem_ctrls.dram.rank1.pwrStateTime::ACT  67149504500                       # Time in different power states
system.mem_ctrls.dram.rank1.pwrStateTime::ACT_PDN            0                       # Time in different power states
system.mem_ctrls.power_state.pwrStateResidencyTicks::UNDEFINED 162209141000                       # Cumulative time (in ticks) in various power states
system.membus.trans_dist::ReadResp              65743                       # Transaction distribution
system.membus.trans_dist::WritebackDirty       111045                       # Transaction distribution
system.membus.trans_dist::CleanEvict            57735                       # Transaction distribution
system.membus.trans_dist::ReadExReq            136085                       # Transaction distribution
system.membus.trans_dist::ReadExResp           136085                       # Transaction distribution
system.membus.trans_dist::ReadSharedReq         65743                       # Transaction distribution
system.membus.pkt_count_system.l2.mem_side_port::system.mem_ctrls.port       572436                       # Packet count per connected requestor and responder (bytes)
system.membus.pkt_count::total                 572436                       # Packet count per connected requestor and responder (bytes)
system.membus.pkt_size_system.l2.mem_side_port::system.mem_ctrls.port     20023872                       # Cumulative packet size per connected requestor and responder (bytes)
system.membus.pkt_size::total                20023872                       # Cumulative packet size per connected requestor and responder (bytes)
system.membus.snoops                                0                       # Total snoops (count)
system.membus.snoopTraffic                          0                       # Total snoop traffic (bytes)
system.membus.snoop_fanout::samples            201828                       # Request fanout histogram
system.membus.snoop_fanout::mean                    0                       # Request fanout histogram
system.membus.snoop_fanout::stdev                   0                       # Request fanout histogram
system.membus.snoop_fanout::underflows              0      0.00%      0.00% # Request fanout histogram
system.membus.snoop_fanout::0                  201828    100.00%    100.00% # Request fanout histogram
system.membus.snoop_fanout::1                       0      0.00%    100.00% # Request fanout histogram
system.membus.snoop_fanout::overflows               0      0.00%    100.00% # Request fanout histogram
system.membus.snoop_fanout::min_value               0                       # Request fanout histogram
system.membus.snoop_fanout::max_value               0                       # Request fanout histogram
system.membus.snoop_fanout::total              201828                       # Request fanout histogram
system.membus.power_state.pwrStateResidencyTicks::UNDEFINED 162209141000                       # Cumulative time (in ticks) in various power states
system.membus.reqLayer0.occupancy           814788000                       # Layer occupancy (ticks)
system.membus.reqLayer0.utilization               0.5                       # Layer utilization (%)
system.membus.respLayer1.occupancy         1090856750                       # Layer occupancy (ticks)
system.membus.respLayer1.utilization              0.7                       # Layer utilization (%)
system.tol2bus.trans_dist::ReadResp            459763                       # Transaction distribution
system.tol2bus.trans_dist::WritebackDirty       810196                       # Transaction distribution
system.tol2bus.trans_dist::WritebackClean          504                       # Transaction distribution
system.tol2bus.trans_dist::CleanEvict          139228                       # Transaction distribution
system.tol2bus.trans_dist::ReadExReq           322370                       # Transaction distribution
system.tol2bus.trans_dist::ReadExResp          322370                       # Transaction distribution
system.tol2bus.trans_dist::ReadCleanReq           885                       # Transaction distribution
system.tol2bus.trans_dist::ReadSharedReq       458878                       # Transaction distribution
system.tol2bus.pkt_count_system.cpu.icache.mem_side_port::system.l2.cpu_side_port         2274                       # Packet count per connected requestor and responder (bytes)
system.tol2bus.pkt_count_system.cpu.dcache.mem_side_port::system.l2.cpu_side_port      2342720                       # Packet count per connected requestor and responder (bytes)
system.tol2bus.pkt_count::total               2344994                       # Packet count per connected requestor and responder (bytes)
system.tol2bus.pkt_size_system.cpu.icache.mem_side_port::system.l2.cpu_side_port        88896                       # Cumulative packet size per connected requestor and responder (bytes)
system.tol2bus.pkt_size_system.cpu.dcache.mem_side_port::system.l2.cpu_side_port     94745536                       # Cumulative packet size per connected requestor and responder (bytes)
system.tol2bus.pkt_size::total               94834432                       # Cumulative packet size per connected requestor and responder (bytes)
system.tol2bus.snoops                          169200                       # Total snoops (count)
system.tol2bus.snoopTraffic                   7106880                       # Total snoop traffic (bytes)
system.tol2bus.snoop_fanout::samples           951333                       # Request fanout histogram
system.tol2bus.snoop_fanout::mean            0.001142                       # Request fanout histogram
system.tol2bus.snoop_fanout::stdev           0.033768                       # Request fanout histogram
system.tol2bus.snoop_fanout::underflows             0      0.00%      0.00% # Request fanout histogram
system.tol2bus.snoop_fanout::0                 950247     99.89%     99.89% # Request fanout histogram
system.tol2bus.snoop_fanout::1                   1086      0.11%    100.00% # Request fanout histogram
system.tol2bus.snoop_fanout::2                      0      0.00%    100.00% # Request fanout histogram
system.tol2bus.snoop_fanout::overflows              0      0.00%    100.00% # Request fanout histogram
system.tol2bus.snoop_fanout::min_value              0                       # Request fanout histogram
system.tol2bus.snoop_fanout::max_value              1                       # Request fanout histogram
system.tol2bus.snoop_fanout::total             951333                       # Request fanout histogram
system.tol2bus.power_state.pwrStateResidencyTicks::UNDEFINED 162209141000                       # Cumulative time (in ticks) in various power states
system.tol2bus.reqLayer0.occupancy         2962171000                       # Layer occupancy (ticks)
system.tol2bus.reqLayer0.utilization              1.8                       # Layer utilization (%)
system.tol2bus.respLayer0.occupancy           2655999                       # Layer occupancy (ticks)
system.tol2bus.respLayer0.utilization             0.0                       # Layer utilization (%)
system.tol2bus.respLayer1.occupancy        2343749994                       # Layer occupancy (ticks)
system.tol2bus.respLayer1.utilization             1.4                       # Layer utilization (%)
system.voltage_domain.voltage                       1                       # Voltage in Volts

---------- End Simulation Statistics   ----------
