
---------- Begin Simulation Statistics ----------
final_tick                               121456222000                       # Number of ticks from beginning of simulation (restored from checkpoints and never reset)
host_inst_rate                                 270594                       # Simulator instruction rate (inst/s)
host_mem_usage                                 670588                       # Number of bytes of host memory used
host_op_rate                                   296115                       # Simulator op (including micro ops) rate (op/s)
host_seconds                                   369.56                       # Real time elapsed on the host
host_tick_rate                              328653298                       # Simulator tick rate (ticks/s)
sim_freq                                 1000000000000                       # Frequency of simulated ticks
sim_insts                                   100000001                       # Number of instructions simulated
sim_ops                                     109431277                       # Number of ops (including micro ops) simulated
sim_seconds                                  0.121456                       # Number of seconds simulated
sim_ticks                                121456222000                       # Number of ticks simulated
system.cpu.committedInsts                   100000001                       # Number of instructions committed
system.cpu.committedOps                     109431277                       # Number of ops (including micro ops) committed
system.cpu.cpi                               1.214562                       # CPI: cycles per instruction
system.cpu.discardedOps                        376210                       # Number of ops (including micro ops) which were discarded before commit
system.cpu.idleCycles                         8799259                       # Total number of cycles that the object has spent stopped
system.cpu.ipc                               0.823342                       # IPC: instructions per cycle
system.cpu.numCycles                        121456222                       # number of cpu cycles simulated
system.cpu.numFetchSuspends                         0                       # Number of times Execute suspended instruction fetching
system.cpu.numWorkItemsCompleted                    0                       # number of work items this cpu completed
system.cpu.numWorkItemsStarted                      0                       # number of work items this cpu started
system.cpu.op_class_0::No_OpClass                   0      0.00%      0.00% # Class of committed instruction
system.cpu.op_class_0::IntAlu                72955010     66.67%     66.67% # Class of committed instruction
system.cpu.op_class_0::IntMult                 568364      0.52%     67.19% # Class of committed instruction
system.cpu.op_class_0::IntDiv                       0      0.00%     67.19% # Class of committed instruction
system.cpu.op_class_0::FloatAdd                     0      0.00%     67.19% # Class of committed instruction
system.cpu.op_class_0::FloatCmp                     0      0.00%     67.19% # Class of committed instruction
system.cpu.op_class_0::FloatCvt                     0      0.00%     67.19% # Class of committed instruction
system.cpu.op_class_0::FloatMult                    0      0.00%     67.19% # Class of committed instruction
system.cpu.op_class_0::FloatMultAcc                 0      0.00%     67.19% # Class of committed instruction
system.cpu.op_class_0::FloatDiv                     0      0.00%     67.19% # Class of committed instruction
system.cpu.op_class_0::FloatMisc                    0      0.00%     67.19% # Class of committed instruction
system.cpu.op_class_0::FloatSqrt                    0      0.00%     67.19% # Class of committed instruction
system.cpu.op_class_0::SimdAdd                 241336      0.22%     67.41% # Class of committed instruction
system.cpu.op_class_0::SimdAddAcc                   0      0.00%     67.41% # Class of committed instruction
system.cpu.op_class_0::SimdAlu                 154628      0.14%     67.55% # Class of committed instruction
system.cpu.op_class_0::SimdCmp                 120668      0.11%     67.66% # Class of committed instruction
system.cpu.op_class_0::SimdCvt                      0      0.00%     67.66% # Class of committed instruction
system.cpu.op_class_0::SimdMisc                 44543      0.04%     67.70% # Class of committed instruction
system.cpu.op_class_0::SimdMult                     0      0.00%     67.70% # Class of committed instruction
system.cpu.op_class_0::SimdMultAcc                  0      0.00%     67.70% # Class of committed instruction
system.cpu.op_class_0::SimdShift                    0      0.00%     67.70% # Class of committed instruction
system.cpu.op_class_0::SimdShiftAcc                 0      0.00%     67.70% # Class of committed instruction
system.cpu.op_class_0::SimdDiv                      0      0.00%     67.70% # Class of committed instruction
system.cpu.op_class_0::SimdSqrt                     0      0.00%     67.70% # Class of committed instruction
system.cpu.op_class_0::SimdFloatAdd                 0      0.00%     67.70% # Class of committed instruction
system.cpu.op_class_0::SimdFloatAlu                 0      0.00%     67.70% # Class of committed instruction
system.cpu.op_class_0::SimdFloatCmp                 0      0.00%     67.70% # Class of committed instruction
system.cpu.op_class_0::SimdFloatCvt                 0      0.00%     67.70% # Class of committed instruction
system.cpu.op_class_0::SimdFloatDiv                 0      0.00%     67.70% # Class of committed instruction
system.cpu.op_class_0::SimdFloatMisc           166417      0.15%     67.85% # Class of committed instruction
system.cpu.op_class_0::SimdFloatMult                0      0.00%     67.85% # Class of committed instruction
system.cpu.op_class_0::SimdFloatMultAcc             0      0.00%     67.85% # Class of committed instruction
system.cpu.op_class_0::SimdFloatSqrt                0      0.00%     67.85% # Class of committed instruction
system.cpu.op_class_0::SimdReduceAdd                0      0.00%     67.85% # Class of committed instruction
system.cpu.op_class_0::SimdReduceAlu                0      0.00%     67.85% # Class of committed instruction
system.cpu.op_class_0::SimdReduceCmp                0      0.00%     67.85% # Class of committed instruction
system.cpu.op_class_0::SimdFloatReduceAdd            0      0.00%     67.85% # Class of committed instruction
system.cpu.op_class_0::SimdFloatReduceCmp            0      0.00%     67.85% # Class of committed instruction
system.cpu.op_class_0::SimdAes                      0      0.00%     67.85% # Class of committed instruction
system.cpu.op_class_0::SimdAesMix                   0      0.00%     67.85% # Class of committed instruction
system.cpu.op_class_0::SimdSha1Hash                 0      0.00%     67.85% # Class of committed instruction
system.cpu.op_class_0::SimdSha1Hash2                0      0.00%     67.85% # Class of committed instruction
system.cpu.op_class_0::SimdSha256Hash               0      0.00%     67.85% # Class of committed instruction
system.cpu.op_class_0::SimdSha256Hash2              0      0.00%     67.85% # Class of committed instruction
system.cpu.op_class_0::SimdShaSigma2                0      0.00%     67.85% # Class of committed instruction
system.cpu.op_class_0::SimdShaSigma3                0      0.00%     67.85% # Class of committed instruction
system.cpu.op_class_0::SimdPredAlu                  0      0.00%     67.85% # Class of committed instruction
system.cpu.op_class_0::MemRead               20645992     18.87%     86.72% # Class of committed instruction
system.cpu.op_class_0::MemWrite              14534319     13.28%    100.00% # Class of committed instruction
system.cpu.op_class_0::FloatMemRead                 0      0.00%    100.00% # Class of committed instruction
system.cpu.op_class_0::FloatMemWrite                0      0.00%    100.00% # Class of committed instruction
system.cpu.op_class_0::IprAccess                    0      0.00%    100.00% # Class of committed instruction
system.cpu.op_class_0::InstPrefetch                 0      0.00%    100.00% # Class of committed instruction
system.cpu.op_class_0::total                109431277                       # Class of committed instruction
system.cpu.tickCycles                       112656963                       # Number of cycles that the object actually ticked
system.cpu.workload.numSyscalls                    87                       # Number of system calls
system.membus.snoop_filter.hit_multi_requests            0                       # Number of requests hitting in the snoop filter with multiple (>1) holders of the requested data.
system.membus.snoop_filter.hit_multi_snoops            0                       # Number of snoops hitting in the snoop filter with multiple (>1) holders of the requested data.
system.membus.snoop_filter.hit_single_requests        12876                       # Number of requests hitting in the snoop filter with a single holder of the requested data.
system.membus.snoop_filter.hit_single_snoops            0                       # Number of snoops hitting in the snoop filter with a single holder of the requested data.
system.membus.snoop_filter.tot_requests         91971                       # Total number of requests made to the snoop filter.
system.membus.snoop_filter.tot_snoops               0                       # Total number of snoops made to the snoop filter.
system.tol2bus.snoop_filter.hit_multi_requests           18                       # Number of requests hitting in the snoop filter with multiple (>1) holders of the requested data.
system.tol2bus.snoop_filter.hit_multi_snoops            4                       # Number of snoops hitting in the snoop filter with multiple (>1) holders of the requested data.
system.tol2bus.snoop_filter.hit_single_requests       493031                       # Number of requests hitting in the snoop filter with a single holder of the requested data.
system.tol2bus.snoop_filter.hit_single_snoops          684                       # Number of snoops hitting in the snoop filter with a single holder of the requested data.
system.tol2bus.snoop_filter.tot_requests       988780                       # Total number of requests made to the snoop filter.
system.tol2bus.snoop_filter.tot_snoops            688                       # Total number of snoops made to the snoop filter.
system.clk_domain.clock                          1000                       # Clock period in ticks
system.cpu.branchPred.lookups                20354147                       # Number of BP lookups
system.cpu.branchPred.condPredicted          16293185                       # Number of conditional branches predicted
system.cpu.branchPred.condIncorrect             53380                       # Number of conditional branches incorrect
system.cpu.branchPred.BTBLookups              8735657                       # Number of BTB lookups
system.cpu.branchPred.BTBHits                 8734441                       # Number of BTB hits
system.cpu.branchPred.BTBHitPct             99.986080                       # BTB Hit Percentage
system.cpu.branchPred.RASUsed                 1050544                       # Number of times the RAS was used to get a target.
system.cpu.branchPred.RASIncorrect                321                       # Number of incorrect RAS predictions.
system.cpu.branchPred.indirectLookups          433986                       # Number of indirect predictor lookups.
system.cpu.branchPred.indirectHits             300036                       # Number of indirect target hits.
system.cpu.branchPred.indirectMisses           133950                       # Number of indirect misses.
system.cpu.branchPred.indirectMispredicted         1044                       # Number of mispredicted indirect branches.
system.cpu.dcache.demand_hits::.cpu.data     35712590                       # number of demand (read+write) hits
system.cpu.dcache.demand_hits::total         35712590                       # number of demand (read+write) hits
system.cpu.dcache.overall_hits::.cpu.data     35715913                       # number of overall hits
system.cpu.dcache.overall_hits::total        35715913                       # number of overall hits
system.cpu.dcache.demand_misses::.cpu.data       113939                       # number of demand (read+write) misses
system.cpu.dcache.demand_misses::total         113939                       # number of demand (read+write) misses
system.cpu.dcache.overall_misses::.cpu.data       113977                       # number of overall misses
system.cpu.dcache.overall_misses::total        113977                       # number of overall misses
system.cpu.dcache.demand_miss_latency::.cpu.data   9570249000                       # number of demand (read+write) miss cycles
system.cpu.dcache.demand_miss_latency::total   9570249000                       # number of demand (read+write) miss cycles
system.cpu.dcache.overall_miss_latency::.cpu.data   9570249000                       # number of overall miss cycles
system.cpu.dcache.overall_miss_latency::total   9570249000                       # number of overall miss cycles
system.cpu.dcache.demand_accesses::.cpu.data     35826529                       # number of demand (read+write) accesses
system.cpu.dcache.demand_accesses::total     35826529                       # number of demand (read+write) accesses
system.cpu.dcache.overall_accesses::.cpu.data     35829890                       # number of overall (read+write) accesses
system.cpu.dcache.overall_accesses::total     35829890                       # number of overall (read+write) accesses
system.cpu.dcache.demand_miss_rate::.cpu.data     0.003180                       # miss rate for demand accesses
system.cpu.dcache.demand_miss_rate::total     0.003180                       # miss rate for demand accesses
system.cpu.dcache.overall_miss_rate::.cpu.data     0.003181                       # miss rate for overall accesses
system.cpu.dcache.overall_miss_rate::total     0.003181                       # miss rate for overall accesses
system.cpu.dcache.demand_avg_miss_latency::.cpu.data 83994.497055                       # average overall miss latency
system.cpu.dcache.demand_avg_miss_latency::total 83994.497055                       # average overall miss latency
system.cpu.dcache.overall_avg_miss_latency::.cpu.data 83966.493240                       # average overall miss latency
system.cpu.dcache.overall_avg_miss_latency::total 83966.493240                       # average overall miss latency
system.cpu.dcache.blocked_cycles::no_mshrs            0                       # number of cycles access was blocked
system.cpu.dcache.blocked_cycles::no_targets            0                       # number of cycles access was blocked
system.cpu.dcache.blocked::no_mshrs                 0                       # number of cycles access was blocked
system.cpu.dcache.blocked::no_targets               0                       # number of cycles access was blocked
system.cpu.dcache.avg_blocked_cycles::no_mshrs          nan                       # average number of cycles each access was blocked
system.cpu.dcache.avg_blocked_cycles::no_targets          nan                       # average number of cycles each access was blocked
system.cpu.dcache.writebacks::.writebacks        87252                       # number of writebacks
system.cpu.dcache.writebacks::total             87252                       # number of writebacks
system.cpu.dcache.demand_mshr_hits::.cpu.data        20651                       # number of demand (read+write) MSHR hits
system.cpu.dcache.demand_mshr_hits::total        20651                       # number of demand (read+write) MSHR hits
system.cpu.dcache.overall_mshr_hits::.cpu.data        20651                       # number of overall MSHR hits
system.cpu.dcache.overall_mshr_hits::total        20651                       # number of overall MSHR hits
system.cpu.dcache.demand_mshr_misses::.cpu.data        93288                       # number of demand (read+write) MSHR misses
system.cpu.dcache.demand_mshr_misses::total        93288                       # number of demand (read+write) MSHR misses
system.cpu.dcache.overall_mshr_misses::.cpu.data        93326                       # number of overall MSHR misses
system.cpu.dcache.overall_mshr_misses::total        93326                       # number of overall MSHR misses
system.cpu.dcache.demand_mshr_miss_latency::.cpu.data   8205370000                       # number of demand (read+write) MSHR miss cycles
system.cpu.dcache.demand_mshr_miss_latency::total   8205370000                       # number of demand (read+write) MSHR miss cycles
system.cpu.dcache.overall_mshr_miss_latency::.cpu.data   8208118000                       # number of overall MSHR miss cycles
system.cpu.dcache.overall_mshr_miss_latency::total   8208118000                       # number of overall MSHR miss cycles
system.cpu.dcache.demand_mshr_miss_rate::.cpu.data     0.002604                       # mshr miss rate for demand accesses
system.cpu.dcache.demand_mshr_miss_rate::total     0.002604                       # mshr miss rate for demand accesses
system.cpu.dcache.overall_mshr_miss_rate::.cpu.data     0.002605                       # mshr miss rate for overall accesses
system.cpu.dcache.overall_mshr_miss_rate::total     0.002605                       # mshr miss rate for overall accesses
system.cpu.dcache.demand_avg_mshr_miss_latency::.cpu.data 87957.400738                       # average overall mshr miss latency
system.cpu.dcache.demand_avg_mshr_miss_latency::total 87957.400738                       # average overall mshr miss latency
system.cpu.dcache.overall_avg_mshr_miss_latency::.cpu.data 87951.031867                       # average overall mshr miss latency
system.cpu.dcache.overall_avg_mshr_miss_latency::total 87951.031867                       # average overall mshr miss latency
system.cpu.dcache.replacements                  91279                       # number of replacements
system.cpu.dcache.ReadReq_hits::.cpu.data     21501961                       # number of ReadReq hits
system.cpu.dcache.ReadReq_hits::total        21501961                       # number of ReadReq hits
system.cpu.dcache.ReadReq_misses::.cpu.data        25752                       # number of ReadReq misses
system.cpu.dcache.ReadReq_misses::total         25752                       # number of ReadReq misses
system.cpu.dcache.ReadReq_miss_latency::.cpu.data   1190519000                       # number of ReadReq miss cycles
system.cpu.dcache.ReadReq_miss_latency::total   1190519000                       # number of ReadReq miss cycles
system.cpu.dcache.ReadReq_accesses::.cpu.data     21527713                       # number of ReadReq accesses(hits+misses)
system.cpu.dcache.ReadReq_accesses::total     21527713                       # number of ReadReq accesses(hits+misses)
system.cpu.dcache.ReadReq_miss_rate::.cpu.data     0.001196                       # miss rate for ReadReq accesses
system.cpu.dcache.ReadReq_miss_rate::total     0.001196                       # miss rate for ReadReq accesses
system.cpu.dcache.ReadReq_avg_miss_latency::.cpu.data 46230.156881                       # average ReadReq miss latency
system.cpu.dcache.ReadReq_avg_miss_latency::total 46230.156881                       # average ReadReq miss latency
system.cpu.dcache.ReadReq_mshr_hits::.cpu.data         4081                       # number of ReadReq MSHR hits
system.cpu.dcache.ReadReq_mshr_hits::total         4081                       # number of ReadReq MSHR hits
system.cpu.dcache.ReadReq_mshr_misses::.cpu.data        21671                       # number of ReadReq MSHR misses
system.cpu.dcache.ReadReq_mshr_misses::total        21671                       # number of ReadReq MSHR misses
system.cpu.dcache.ReadReq_mshr_miss_latency::.cpu.data   1018249000                       # number of ReadReq MSHR miss cycles
system.cpu.dcache.ReadReq_mshr_miss_latency::total   1018249000                       # number of ReadReq MSHR miss cycles
system.cpu.dcache.ReadReq_mshr_miss_rate::.cpu.data     0.001007                       # mshr miss rate for ReadReq accesses
system.cpu.dcache.ReadReq_mshr_miss_rate::total     0.001007                       # mshr miss rate for ReadReq accesses
system.cpu.dcache.ReadReq_avg_mshr_miss_latency::.cpu.data 46986.710350                       # average ReadReq mshr miss latency
system.cpu.dcache.ReadReq_avg_mshr_miss_latency::total 46986.710350                       # average ReadReq mshr miss latency
system.cpu.dcache.WriteReq_hits::.cpu.data     14210629                       # number of WriteReq hits
system.cpu.dcache.WriteReq_hits::total       14210629                       # number of WriteReq hits
system.cpu.dcache.WriteReq_misses::.cpu.data        88187                       # number of WriteReq misses
system.cpu.dcache.WriteReq_misses::total        88187                       # number of WriteReq misses
system.cpu.dcache.WriteReq_miss_latency::.cpu.data   8379730000                       # number of WriteReq miss cycles
system.cpu.dcache.WriteReq_miss_latency::total   8379730000                       # number of WriteReq miss cycles
system.cpu.dcache.WriteReq_accesses::.cpu.data     14298816                       # number of WriteReq accesses(hits+misses)
system.cpu.dcache.WriteReq_accesses::total     14298816                       # number of WriteReq accesses(hits+misses)
system.cpu.dcache.WriteReq_miss_rate::.cpu.data     0.006167                       # miss rate for WriteReq accesses
system.cpu.dcache.WriteReq_miss_rate::total     0.006167                       # miss rate for WriteReq accesses
system.cpu.dcache.WriteReq_avg_miss_latency::.cpu.data 95022.282196                       # average WriteReq miss latency
system.cpu.dcache.WriteReq_avg_miss_latency::total 95022.282196                       # average WriteReq miss latency
system.cpu.dcache.WriteReq_mshr_hits::.cpu.data        16570                       # number of WriteReq MSHR hits
system.cpu.dcache.WriteReq_mshr_hits::total        16570                       # number of WriteReq MSHR hits
system.cpu.dcache.WriteReq_mshr_misses::.cpu.data        71617                       # number of WriteReq MSHR misses
system.cpu.dcache.WriteReq_mshr_misses::total        71617                       # number of WriteReq MSHR misses
system.cpu.dcache.WriteReq_mshr_miss_latency::.cpu.data   7187121000                       # number of WriteReq MSHR miss cycles
system.cpu.dcache.WriteReq_mshr_miss_latency::total   7187121000                       # number of WriteReq MSHR miss cycles
system.cpu.dcache.WriteReq_mshr_miss_rate::.cpu.data     0.005009                       # mshr miss rate for WriteReq accesses
system.cpu.dcache.WriteReq_mshr_miss_rate::total     0.005009                       # mshr miss rate for WriteReq accesses
system.cpu.dcache.WriteReq_avg_mshr_miss_latency::.cpu.data 100354.957622                       # average WriteReq mshr miss latency
system.cpu.dcache.WriteReq_avg_mshr_miss_latency::total 100354.957622                       # average WriteReq mshr miss latency
system.cpu.dcache.SoftPFReq_hits::.cpu.data         3323                       # number of SoftPFReq hits
system.cpu.dcache.SoftPFReq_hits::total          3323                       # number of SoftPFReq hits
system.cpu.dcache.SoftPFReq_misses::.cpu.data           38                       # number of SoftPFReq misses
system.cpu.dcache.SoftPFReq_misses::total           38                       # number of SoftPFReq misses
system.cpu.dcache.SoftPFReq_accesses::.cpu.data         3361                       # number of SoftPFReq accesses(hits+misses)
system.cpu.dcache.SoftPFReq_accesses::total         3361                       # number of SoftPFReq accesses(hits+misses)
system.cpu.dcache.SoftPFReq_miss_rate::.cpu.data     0.011306                       # miss rate for SoftPFReq accesses
system.cpu.dcache.SoftPFReq_miss_rate::total     0.011306                       # miss rate for SoftPFReq accesses
system.cpu.dcache.SoftPFReq_mshr_misses::.cpu.data           38                       # number of SoftPFReq MSHR misses
system.cpu.dcache.SoftPFReq_mshr_misses::total           38                       # number of SoftPFReq MSHR misses
system.cpu.dcache.SoftPFReq_mshr_miss_latency::.cpu.data      2748000                       # number of SoftPFReq MSHR miss cycles
system.cpu.dcache.SoftPFReq_mshr_miss_latency::total      2748000                       # number of SoftPFReq MSHR miss cycles
system.cpu.dcache.SoftPFReq_mshr_miss_rate::.cpu.data     0.011306                       # mshr miss rate for SoftPFReq accesses
system.cpu.dcache.SoftPFReq_mshr_miss_rate::total     0.011306                       # mshr miss rate for SoftPFReq accesses
system.cpu.dcache.SoftPFReq_avg_mshr_miss_latency::.cpu.data 72315.789474                       # average SoftPFReq mshr miss latency
system.cpu.dcache.SoftPFReq_avg_mshr_miss_latency::total 72315.789474                       # average SoftPFReq mshr miss latency
system.cpu.dcache.LoadLockedReq_hits::.cpu.data        89079                       # number of LoadLockedReq hits
system.cpu.dcache.LoadLockedReq_hits::total        89079                       # number of LoadLockedReq hits
system.cpu.dcache.LoadLockedReq_misses::.cpu.data            1                       # number of LoadLockedReq misses
system.cpu.dcache.LoadLockedReq_misses::total            1                       # number of LoadLockedReq misses
system.cpu.dcache.LoadLockedReq_miss_latency::.cpu.data       124000                       # number of LoadLockedReq miss cycles
system.cpu.dcache.LoadLockedReq_miss_latency::total       124000                       # number of LoadLockedReq miss cycles
system.cpu.dcache.LoadLockedReq_accesses::.cpu.data        89080                       # number of LoadLockedReq accesses(hits+misses)
system.cpu.dcache.LoadLockedReq_accesses::total        89080                       # number of LoadLockedReq accesses(hits+misses)
system.cpu.dcache.LoadLockedReq_miss_rate::.cpu.data     0.000011                       # miss rate for LoadLockedReq accesses
system.cpu.dcache.LoadLockedReq_miss_rate::total     0.000011                       # miss rate for LoadLockedReq accesses
system.cpu.dcache.LoadLockedReq_avg_miss_latency::.cpu.data       124000                       # average LoadLockedReq miss latency
system.cpu.dcache.LoadLockedReq_avg_miss_latency::total       124000                       # average LoadLockedReq miss latency
system.cpu.dcache.LoadLockedReq_mshr_misses::.cpu.data            1                       # number of LoadLockedReq MSHR misses
system.cpu.dcache.LoadLockedReq_mshr_misses::total            1                       # number of LoadLockedReq MSHR misses
system.cpu.dcache.LoadLockedReq_mshr_miss_latency::.cpu.data       122000                       # number of LoadLockedReq MSHR miss cycles
system.cpu.dcache.LoadLockedReq_mshr_miss_latency::total       122000                       # number of LoadLockedReq MSHR miss cycles
system.cpu.dcache.LoadLockedReq_mshr_miss_rate::.cpu.data     0.000011                       # mshr miss rate for LoadLockedReq accesses
system.cpu.dcache.LoadLockedReq_mshr_miss_rate::total     0.000011                       # mshr miss rate for LoadLockedReq accesses
system.cpu.dcache.LoadLockedReq_avg_mshr_miss_latency::.cpu.data       122000                       # average LoadLockedReq mshr miss latency
system.cpu.dcache.LoadLockedReq_avg_mshr_miss_latency::total       122000                       # average LoadLockedReq mshr miss latency
system.cpu.dcache.StoreCondReq_hits::.cpu.data        89080                       # number of StoreCondReq hits
system.cpu.dcache.StoreCondReq_hits::total        89080                       # number of StoreCondReq hits
system.cpu.dcache.StoreCondReq_accesses::.cpu.data        89080                       # number of StoreCondReq accesses(hits+misses)
system.cpu.dcache.StoreCondReq_accesses::total        89080                       # number of StoreCondReq accesses(hits+misses)
system.cpu.dcache.power_state.pwrStateResidencyTicks::UNDEFINED 121456222000                       # Cumulative time (in ticks) in various power states
system.cpu.dcache.tags.tagsinuse          2040.664259                       # Cycle average of tags in use
system.cpu.dcache.tags.total_refs            35987399                       # Total number of references to valid blocks.
system.cpu.dcache.tags.sampled_refs             93327                       # Sample count of references to valid blocks.
system.cpu.dcache.tags.avg_refs            385.605441                       # Average number of references to valid blocks.
system.cpu.dcache.tags.warmup_cycle            223000                       # Cycle when the warmup percentage was hit.
system.cpu.dcache.tags.occ_blocks::.cpu.data  2040.664259                       # Average occupied blocks per requestor
system.cpu.dcache.tags.occ_percent::.cpu.data     0.996418                       # Average percentage of cache occupancy
system.cpu.dcache.tags.occ_percent::total     0.996418                       # Average percentage of cache occupancy
system.cpu.dcache.tags.occ_task_id_blocks::1024         2048                       # Occupied blocks per task id
system.cpu.dcache.tags.age_task_id_blocks_1024::0            3                       # Occupied blocks per task id
system.cpu.dcache.tags.age_task_id_blocks_1024::1           35                       # Occupied blocks per task id
system.cpu.dcache.tags.age_task_id_blocks_1024::2          402                       # Occupied blocks per task id
system.cpu.dcache.tags.age_task_id_blocks_1024::3         1440                       # Occupied blocks per task id
system.cpu.dcache.tags.age_task_id_blocks_1024::4          168                       # Occupied blocks per task id
system.cpu.dcache.tags.occ_task_id_percent::1024            1                       # Percentage of cache occupancy per task id
system.cpu.dcache.tags.tag_accesses          72109427                       # Number of tag accesses
system.cpu.dcache.tags.data_accesses         72109427                       # Number of data accesses
system.cpu.dcache.tags.power_state.pwrStateResidencyTicks::UNDEFINED 121456222000                       # Cumulative time (in ticks) in various power states
system.cpu.dtb.instHits                             0                       # ITB inst hits
system.cpu.dtb.instMisses                           0                       # ITB inst misses
system.cpu.dtb.readHits                             0                       # DTB read hits
system.cpu.dtb.readMisses                           0                       # DTB read misses
system.cpu.dtb.writeHits                            0                       # DTB write hits
system.cpu.dtb.writeMisses                          0                       # DTB write misses
system.cpu.dtb.inserts                              0                       # Number of times an entry is inserted into the TLB
system.cpu.dtb.flushTlb                             0                       # Number of times complete TLB was flushed
system.cpu.dtb.flushTlbMva                          0                       # Number of times TLB was flushed by MVA
system.cpu.dtb.flushTlbMvaAsid                      0                       # Number of times TLB was flushed by MVA & ASID
system.cpu.dtb.flushTlbAsid                         0                       # Number of times TLB was flushed by ASID
system.cpu.dtb.flushedEntries                       0                       # Number of entries that have been flushed from TLB
system.cpu.dtb.alignFaults                          0                       # Number of TLB faults due to alignment restrictions
system.cpu.dtb.prefetchFaults                       0                       # Number of TLB faults due to prefetch
system.cpu.dtb.domainFaults                         0                       # Number of TLB faults due to domain restrictions
system.cpu.dtb.permsFaults                          0                       # Number of TLB faults due to permissions restrictions
system.cpu.dtb.readAccesses                         0                       # DTB read accesses
system.cpu.dtb.writeAccesses                        0                       # DTB write accesses
system.cpu.dtb.instAccesses                         0                       # ITB inst accesses
system.cpu.dtb.hits                                 0                       # Total TLB (inst and data) hits
system.cpu.dtb.misses                               0                       # Total TLB (inst and data) misses
system.cpu.dtb.accesses                             0                       # Total TLB (inst and data) accesses
system.cpu.dtb.stage2_mmu.stage2_tlb.instHits            0                       # ITB inst hits
system.cpu.dtb.stage2_mmu.stage2_tlb.instMisses            0                       # ITB inst misses
system.cpu.dtb.stage2_mmu.stage2_tlb.readHits            0                       # DTB read hits
system.cpu.dtb.stage2_mmu.stage2_tlb.readMisses            0                       # DTB read misses
system.cpu.dtb.stage2_mmu.stage2_tlb.writeHits            0                       # DTB write hits
system.cpu.dtb.stage2_mmu.stage2_tlb.writeMisses            0                       # DTB write misses
system.cpu.dtb.stage2_mmu.stage2_tlb.inserts            0                       # Number of times an entry is inserted into the TLB
system.cpu.dtb.stage2_mmu.stage2_tlb.flushTlb            0                       # Number of times complete TLB was flushed
system.cpu.dtb.stage2_mmu.stage2_tlb.flushTlbMva            0                       # Number of times TLB was flushed by MVA
system.cpu.dtb.stage2_mmu.stage2_tlb.flushTlbMvaAsid            0                       # Number of times TLB was flushed by MVA & ASID
system.cpu.dtb.stage2_mmu.stage2_tlb.flushTlbAsid            0                       # Number of times TLB was flushed by ASID
system.cpu.dtb.stage2_mmu.stage2_tlb.flushedEntries            0                       # Number of entries that have been flushed from TLB
system.cpu.dtb.stage2_mmu.stage2_tlb.alignFaults            0                       # Number of TLB faults due to alignment restrictions
system.cpu.dtb.stage2_mmu.stage2_tlb.prefetchFaults            0                       # Number of TLB faults due to prefetch
system.cpu.dtb.stage2_mmu.stage2_tlb.domainFaults            0                       # Number of TLB faults due to domain restrictions
system.cpu.dtb.stage2_mmu.stage2_tlb.permsFaults            0                       # Number of TLB faults due to permissions restrictions
system.cpu.dtb.stage2_mmu.stage2_tlb.readAccesses            0                       # DTB read accesses
system.cpu.dtb.stage2_mmu.stage2_tlb.writeAccesses            0                       # DTB write accesses
system.cpu.dtb.stage2_mmu.stage2_tlb.instAccesses            0                       # ITB inst accesses
system.cpu.dtb.stage2_mmu.stage2_tlb.hits            0                       # Total TLB (inst and data) hits
system.cpu.dtb.stage2_mmu.stage2_tlb.misses            0                       # Total TLB (inst and data) misses
system.cpu.dtb.stage2_mmu.stage2_tlb.accesses            0                       # Total TLB (inst and data) accesses
system.cpu.dtb.stage2_mmu.stage2_tlb.walker.walks            0                       # Table walker walks requested
system.cpu.dtb.stage2_mmu.stage2_tlb.walker.requestOrigin_Requested::Data            0                       # Table walker requests started/completed, data/inst
system.cpu.dtb.stage2_mmu.stage2_tlb.walker.requestOrigin_Requested::Inst            0                       # Table walker requests started/completed, data/inst
system.cpu.dtb.stage2_mmu.stage2_tlb.walker.requestOrigin_Requested::total            0                       # Table walker requests started/completed, data/inst
system.cpu.dtb.stage2_mmu.stage2_tlb.walker.requestOrigin_Completed::Data            0                       # Table walker requests started/completed, data/inst
system.cpu.dtb.stage2_mmu.stage2_tlb.walker.requestOrigin_Completed::Inst            0                       # Table walker requests started/completed, data/inst
system.cpu.dtb.stage2_mmu.stage2_tlb.walker.requestOrigin_Completed::total            0                       # Table walker requests started/completed, data/inst
system.cpu.dtb.stage2_mmu.stage2_tlb.walker.requestOrigin::total            0                       # Table walker requests started/completed, data/inst
system.cpu.dtb.stage2_mmu.stage2_tlb.walker.power_state.pwrStateResidencyTicks::UNDEFINED 121456222000                       # Cumulative time (in ticks) in various power states
system.cpu.dtb.walker.walks                         0                       # Table walker walks requested
system.cpu.dtb.walker.requestOrigin_Requested::Data            0                       # Table walker requests started/completed, data/inst
system.cpu.dtb.walker.requestOrigin_Requested::Inst            0                       # Table walker requests started/completed, data/inst
system.cpu.dtb.walker.requestOrigin_Requested::total            0                       # Table walker requests started/completed, data/inst
system.cpu.dtb.walker.requestOrigin_Completed::Data            0                       # Table walker requests started/completed, data/inst
system.cpu.dtb.walker.requestOrigin_Completed::Inst            0                       # Table walker requests started/completed, data/inst
system.cpu.dtb.walker.requestOrigin_Completed::total            0                       # Table walker requests started/completed, data/inst
system.cpu.dtb.walker.requestOrigin::total            0                       # Table walker requests started/completed, data/inst
system.cpu.dtb.walker.power_state.pwrStateResidencyTicks::UNDEFINED 121456222000                       # Cumulative time (in ticks) in various power states
system.cpu.fetch2.intInstructions            49139190                       # Number of integer instructions successfully decoded
system.cpu.fetch2.fpInstructions                    0                       # Number of floating point instructions successfully decoded
system.cpu.fetch2.vecInstructions                   0                       # Number of SIMD instructions successfully decoded
system.cpu.fetch2.loadInstructions           17105759                       # Number of memory load instructions successfully decoded
system.cpu.fetch2.storeInstructions           9761903                       # Number of memory store instructions successfully decoded
system.cpu.fetch2.amoInstructions                   0                       # Number of memory atomic instructions successfully decoded
system.cpu.icache.demand_hits::.cpu.inst     29884323                       # number of demand (read+write) hits
system.cpu.icache.demand_hits::total         29884323                       # number of demand (read+write) hits
system.cpu.icache.overall_hits::.cpu.inst     29884323                       # number of overall hits
system.cpu.icache.overall_hits::total        29884323                       # number of overall hits
system.cpu.icache.demand_misses::.cpu.inst       402426                       # number of demand (read+write) misses
system.cpu.icache.demand_misses::total         402426                       # number of demand (read+write) misses
system.cpu.icache.overall_misses::.cpu.inst       402426                       # number of overall misses
system.cpu.icache.overall_misses::total        402426                       # number of overall misses
system.cpu.icache.demand_miss_latency::.cpu.inst  10523334000                       # number of demand (read+write) miss cycles
system.cpu.icache.demand_miss_latency::total  10523334000                       # number of demand (read+write) miss cycles
system.cpu.icache.overall_miss_latency::.cpu.inst  10523334000                       # number of overall miss cycles
system.cpu.icache.overall_miss_latency::total  10523334000                       # number of overall miss cycles
system.cpu.icache.demand_accesses::.cpu.inst     30286749                       # number of demand (read+write) accesses
system.cpu.icache.demand_accesses::total     30286749                       # number of demand (read+write) accesses
system.cpu.icache.overall_accesses::.cpu.inst     30286749                       # number of overall (read+write) accesses
system.cpu.icache.overall_accesses::total     30286749                       # number of overall (read+write) accesses
system.cpu.icache.demand_miss_rate::.cpu.inst     0.013287                       # miss rate for demand accesses
system.cpu.icache.demand_miss_rate::total     0.013287                       # miss rate for demand accesses
system.cpu.icache.overall_miss_rate::.cpu.inst     0.013287                       # miss rate for overall accesses
system.cpu.icache.overall_miss_rate::total     0.013287                       # miss rate for overall accesses
system.cpu.icache.demand_avg_miss_latency::.cpu.inst 26149.736846                       # average overall miss latency
system.cpu.icache.demand_avg_miss_latency::total 26149.736846                       # average overall miss latency
system.cpu.icache.overall_avg_miss_latency::.cpu.inst 26149.736846                       # average overall miss latency
system.cpu.icache.overall_avg_miss_latency::total 26149.736846                       # average overall miss latency
system.cpu.icache.blocked_cycles::no_mshrs            0                       # number of cycles access was blocked
system.cpu.icache.blocked_cycles::no_targets            0                       # number of cycles access was blocked
system.cpu.icache.blocked::no_mshrs                 0                       # number of cycles access was blocked
system.cpu.icache.blocked::no_targets               0                       # number of cycles access was blocked
system.cpu.icache.avg_blocked_cycles::no_mshrs          nan                       # average number of cycles each access was blocked
system.cpu.icache.avg_blocked_cycles::no_targets          nan                       # average number of cycles each access was blocked
system.cpu.icache.writebacks::.writebacks       401748                       # number of writebacks
system.cpu.icache.writebacks::total            401748                       # number of writebacks
system.cpu.icache.demand_mshr_misses::.cpu.inst       402426                       # number of demand (read+write) MSHR misses
system.cpu.icache.demand_mshr_misses::total       402426                       # number of demand (read+write) MSHR misses
system.cpu.icache.overall_mshr_misses::.cpu.inst       402426                       # number of overall MSHR misses
system.cpu.icache.overall_mshr_misses::total       402426                       # number of overall MSHR misses
system.cpu.icache.demand_mshr_miss_latency::.cpu.inst   9718482000                       # number of demand (read+write) MSHR miss cycles
system.cpu.icache.demand_mshr_miss_latency::total   9718482000                       # number of demand (read+write) MSHR miss cycles
system.cpu.icache.overall_mshr_miss_latency::.cpu.inst   9718482000                       # number of overall MSHR miss cycles
system.cpu.icache.overall_mshr_miss_latency::total   9718482000                       # number of overall MSHR miss cycles
system.cpu.icache.demand_mshr_miss_rate::.cpu.inst     0.013287                       # mshr miss rate for demand accesses
system.cpu.icache.demand_mshr_miss_rate::total     0.013287                       # mshr miss rate for demand accesses
system.cpu.icache.overall_mshr_miss_rate::.cpu.inst     0.013287                       # mshr miss rate for overall accesses
system.cpu.icache.overall_mshr_miss_rate::total     0.013287                       # mshr miss rate for overall accesses
system.cpu.icache.demand_avg_mshr_miss_latency::.cpu.inst 24149.736846                       # average overall mshr miss latency
system.cpu.icache.demand_avg_mshr_miss_latency::total 24149.736846                       # average overall mshr miss latency
system.cpu.icache.overall_avg_mshr_miss_latency::.cpu.inst 24149.736846                       # average overall mshr miss latency
system.cpu.icache.overall_avg_mshr_miss_latency::total 24149.736846                       # average overall mshr miss latency
system.cpu.icache.replacements                 401748                       # number of replacements
system.cpu.icache.ReadReq_hits::.cpu.inst     29884323                       # number of ReadReq hits
system.cpu.icache.ReadReq_hits::total        29884323                       # number of ReadReq hits
system.cpu.icache.ReadReq_misses::.cpu.inst       402426                       # number of ReadReq misses
system.cpu.icache.ReadReq_misses::total        402426                       # number of ReadReq misses
system.cpu.icache.ReadReq_miss_latency::.cpu.inst  10523334000                       # number of ReadReq miss cycles
system.cpu.icache.ReadReq_miss_latency::total  10523334000                       # number of ReadReq miss cycles
system.cpu.icache.ReadReq_accesses::.cpu.inst     30286749                       # number of ReadReq accesses(hits+misses)
system.cpu.icache.ReadReq_accesses::total     30286749                       # number of ReadReq accesses(hits+misses)
system.cpu.icache.ReadReq_miss_rate::.cpu.inst     0.013287                       # miss rate for ReadReq accesses
system.cpu.icache.ReadReq_miss_rate::total     0.013287                       # miss rate for ReadReq accesses
system.cpu.icache.ReadReq_avg_miss_latency::.cpu.inst 26149.736846                       # average ReadReq miss latency
system.cpu.icache.ReadReq_avg_miss_latency::total 26149.736846                       # average ReadReq miss latency
system.cpu.icache.ReadReq_mshr_misses::.cpu.inst       402426                       # number of ReadReq MSHR misses
system.cpu.icache.ReadReq_mshr_misses::total       402426                       # number of ReadReq MSHR misses
system.cpu.icache.ReadReq_mshr_miss_latency::.cpu.inst   9718482000                       # number of ReadReq MSHR miss cycles
system.cpu.icache.ReadReq_mshr_miss_latency::total   9718482000                       # number of ReadReq MSHR miss cycles
system.cpu.icache.ReadReq_mshr_miss_rate::.cpu.inst     0.013287                       # mshr miss rate for ReadReq accesses
system.cpu.icache.ReadReq_mshr_miss_rate::total     0.013287                       # mshr miss rate for ReadReq accesses
system.cpu.icache.ReadReq_avg_mshr_miss_latency::.cpu.inst 24149.736846                       # average ReadReq mshr miss latency
system.cpu.icache.ReadReq_avg_mshr_miss_latency::total 24149.736846                       # average ReadReq mshr miss latency
system.cpu.icache.power_state.pwrStateResidencyTicks::UNDEFINED 121456222000                       # Cumulative time (in ticks) in various power states
system.cpu.icache.tags.tagsinuse           676.321773                       # Cycle average of tags in use
system.cpu.icache.tags.total_refs            30286749                       # Total number of references to valid blocks.
system.cpu.icache.tags.sampled_refs            402426                       # Sample count of references to valid blocks.
system.cpu.icache.tags.avg_refs             75.260418                       # Average number of references to valid blocks.
system.cpu.icache.tags.warmup_cycle            108000                       # Cycle when the warmup percentage was hit.
system.cpu.icache.tags.occ_blocks::.cpu.inst   676.321773                       # Average occupied blocks per requestor
system.cpu.icache.tags.occ_percent::.cpu.inst     0.660470                       # Average percentage of cache occupancy
system.cpu.icache.tags.occ_percent::total     0.660470                       # Average percentage of cache occupancy
system.cpu.icache.tags.occ_task_id_blocks::1024          678                       # Occupied blocks per task id
system.cpu.icache.tags.age_task_id_blocks_1024::0            6                       # Occupied blocks per task id
system.cpu.icache.tags.age_task_id_blocks_1024::3            8                       # Occupied blocks per task id
system.cpu.icache.tags.age_task_id_blocks_1024::4          664                       # Occupied blocks per task id
system.cpu.icache.tags.occ_task_id_percent::1024     0.662109                       # Percentage of cache occupancy per task id
system.cpu.icache.tags.tag_accesses          60975924                       # Number of tag accesses
system.cpu.icache.tags.data_accesses         60975924                       # Number of data accesses
system.cpu.icache.tags.power_state.pwrStateResidencyTicks::UNDEFINED 121456222000                       # Cumulative time (in ticks) in various power states
system.cpu.itb.instHits                             0                       # ITB inst hits
system.cpu.itb.instMisses                           0                       # ITB inst misses
system.cpu.itb.readHits                             0                       # DTB read hits
system.cpu.itb.readMisses                           0                       # DTB read misses
system.cpu.itb.writeHits                            0                       # DTB write hits
system.cpu.itb.writeMisses                          0                       # DTB write misses
system.cpu.itb.inserts                              0                       # Number of times an entry is inserted into the TLB
system.cpu.itb.flushTlb                             0                       # Number of times complete TLB was flushed
system.cpu.itb.flushTlbMva                          0                       # Number of times TLB was flushed by MVA
system.cpu.itb.flushTlbMvaAsid                      0                       # Number of times TLB was flushed by MVA & ASID
system.cpu.itb.flushTlbAsid                         0                       # Number of times TLB was flushed by ASID
system.cpu.itb.flushedEntries                       0                       # Number of entries that have been flushed from TLB
system.cpu.itb.alignFaults                          0                       # Number of TLB faults due to alignment restrictions
system.cpu.itb.prefetchFaults                       0                       # Number of TLB faults due to prefetch
system.cpu.itb.domainFaults                         0                       # Number of TLB faults due to domain restrictions
system.cpu.itb.permsFaults                          0                       # Number of TLB faults due to permissions restrictions
system.cpu.itb.readAccesses                         0                       # DTB read accesses
system.cpu.itb.writeAccesses                        0                       # DTB write accesses
system.cpu.itb.instAccesses                         0                       # ITB inst accesses
system.cpu.itb.hits                                 0                       # Total TLB (inst and data) hits
system.cpu.itb.misses                               0                       # Total TLB (inst and data) misses
system.cpu.itb.accesses                             0                       # Total TLB (inst and data) accesses
system.cpu.itb.stage2_mmu.stage2_tlb.instHits            0                       # ITB inst hits
system.cpu.itb.stage2_mmu.stage2_tlb.instMisses            0                       # ITB inst misses
system.cpu.itb.stage2_mmu.stage2_tlb.readHits            0                       # DTB read hits
system.cpu.itb.stage2_mmu.stage2_tlb.readMisses            0                       # DTB read misses
system.cpu.itb.stage2_mmu.stage2_tlb.writeHits            0                       # DTB write hits
system.cpu.itb.stage2_mmu.stage2_tlb.writeMisses            0                       # DTB write misses
system.cpu.itb.stage2_mmu.stage2_tlb.inserts            0                       # Number of times an entry is inserted into the TLB
system.cpu.itb.stage2_mmu.stage2_tlb.flushTlb            0                       # Number of times complete TLB was flushed
system.cpu.itb.stage2_mmu.stage2_tlb.flushTlbMva            0                       # Number of times TLB was flushed by MVA
system.cpu.itb.stage2_mmu.stage2_tlb.flushTlbMvaAsid            0                       # Number of times TLB was flushed by MVA & ASID
system.cpu.itb.stage2_mmu.stage2_tlb.flushTlbAsid            0                       # Number of times TLB was flushed by ASID
system.cpu.itb.stage2_mmu.stage2_tlb.flushedEntries            0                       # Number of entries that have been flushed from TLB
system.cpu.itb.stage2_mmu.stage2_tlb.alignFaults            0                       # Number of TLB faults due to alignment restrictions
system.cpu.itb.stage2_mmu.stage2_tlb.prefetchFaults            0                       # Number of TLB faults due to prefetch
system.cpu.itb.stage2_mmu.stage2_tlb.domainFaults            0                       # Number of TLB faults due to domain restrictions
system.cpu.itb.stage2_mmu.stage2_tlb.permsFaults            0                       # Number of TLB faults due to permissions restrictions
system.cpu.itb.stage2_mmu.stage2_tlb.readAccesses            0                       # DTB read accesses
system.cpu.itb.stage2_mmu.stage2_tlb.writeAccesses            0                       # DTB write accesses
system.cpu.itb.stage2_mmu.stage2_tlb.instAccesses            0                       # ITB inst accesses
system.cpu.itb.stage2_mmu.stage2_tlb.hits            0                       # Total TLB (inst and data) hits
system.cpu.itb.stage2_mmu.stage2_tlb.misses            0                       # Total TLB (inst and data) misses
system.cpu.itb.stage2_mmu.stage2_tlb.accesses            0                       # Total TLB (inst and data) accesses
system.cpu.itb.stage2_mmu.stage2_tlb.walker.walks            0                       # Table walker walks requested
system.cpu.itb.stage2_mmu.stage2_tlb.walker.requestOrigin_Requested::Data            0                       # Table walker requests started/completed, data/inst
system.cpu.itb.stage2_mmu.stage2_tlb.walker.requestOrigin_Requested::Inst            0                       # Table walker requests started/completed, data/inst
system.cpu.itb.stage2_mmu.stage2_tlb.walker.requestOrigin_Requested::total            0                       # Table walker requests started/completed, data/inst
system.cpu.itb.stage2_mmu.stage2_tlb.walker.requestOrigin_Completed::Data            0                       # Table walker requests started/completed, data/inst
system.cpu.itb.stage2_mmu.stage2_tlb.walker.requestOrigin_Completed::Inst            0                       # Table walker requests started/completed, data/inst
system.cpu.itb.stage2_mmu.stage2_tlb.walker.requestOrigin_Completed::total            0                       # Table walker requests started/completed, data/inst
system.cpu.itb.stage2_mmu.stage2_tlb.walker.requestOrigin::total            0                       # Table walker requests started/completed, data/inst
system.cpu.itb.stage2_mmu.stage2_tlb.walker.power_state.pwrStateResidencyTicks::UNDEFINED 121456222000                       # Cumulative time (in ticks) in various power states
system.cpu.itb.walker.walks                         0                       # Table walker walks requested
system.cpu.itb.walker.requestOrigin_Requested::Data            0                       # Table walker requests started/completed, data/inst
system.cpu.itb.walker.requestOrigin_Requested::Inst            0                       # Table walker requests started/completed, data/inst
system.cpu.itb.walker.requestOrigin_Requested::total            0                       # Table walker requests started/completed, data/inst
system.cpu.itb.walker.requestOrigin_Completed::Data            0                       # Table walker requests started/completed, data/inst
system.cpu.itb.walker.requestOrigin_Completed::Inst            0                       # Table walker requests started/completed, data/inst
system.cpu.itb.walker.requestOrigin_Completed::total            0                       # Table walker requests started/completed, data/inst
system.cpu.itb.walker.requestOrigin::total            0                       # Table walker requests started/completed, data/inst
system.cpu.itb.walker.power_state.pwrStateResidencyTicks::UNDEFINED 121456222000                       # Cumulative time (in ticks) in various power states
system.cpu.power_state.pwrStateResidencyTicks::ON 121456222000                       # Cumulative time (in ticks) in various power states
system.cpu.thread0.numInsts                 100000001                       # Number of Instructions committed
system.cpu.thread0.numOps                   109431277                       # Number of Ops committed
system.cpu.thread0.numMemRefs                       0                       # Number of Memory References
system.cpu_clk_domain.clock                      1000                       # Clock period in ticks
system.cpu_voltage_domain.voltage                   1                       # Voltage in Volts
system.l2.demand_hits::.cpu.inst               401617                       # number of demand (read+write) hits
system.l2.demand_hits::.cpu.data                15035                       # number of demand (read+write) hits
system.l2.demand_hits::total                   416652                       # number of demand (read+write) hits
system.l2.overall_hits::.cpu.inst              401617                       # number of overall hits
system.l2.overall_hits::.cpu.data               15035                       # number of overall hits
system.l2.overall_hits::total                  416652                       # number of overall hits
system.l2.demand_misses::.cpu.inst                809                       # number of demand (read+write) misses
system.l2.demand_misses::.cpu.data              78292                       # number of demand (read+write) misses
system.l2.demand_misses::total                  79101                       # number of demand (read+write) misses
system.l2.overall_misses::.cpu.inst               809                       # number of overall misses
system.l2.overall_misses::.cpu.data             78292                       # number of overall misses
system.l2.overall_misses::total                 79101                       # number of overall misses
system.l2.demand_miss_latency::.cpu.inst     77234000                       # number of demand (read+write) miss cycles
system.l2.demand_miss_latency::.cpu.data   7612488000                       # number of demand (read+write) miss cycles
system.l2.demand_miss_latency::total       7689722000                       # number of demand (read+write) miss cycles
system.l2.overall_miss_latency::.cpu.inst     77234000                       # number of overall miss cycles
system.l2.overall_miss_latency::.cpu.data   7612488000                       # number of overall miss cycles
system.l2.overall_miss_latency::total      7689722000                       # number of overall miss cycles
system.l2.demand_accesses::.cpu.inst           402426                       # number of demand (read+write) accesses
system.l2.demand_accesses::.cpu.data            93327                       # number of demand (read+write) accesses
system.l2.demand_accesses::total               495753                       # number of demand (read+write) accesses
system.l2.overall_accesses::.cpu.inst          402426                       # number of overall (read+write) accesses
system.l2.overall_accesses::.cpu.data           93327                       # number of overall (read+write) accesses
system.l2.overall_accesses::total              495753                       # number of overall (read+write) accesses
system.l2.demand_miss_rate::.cpu.inst        0.002010                       # miss rate for demand accesses
system.l2.demand_miss_rate::.cpu.data        0.838900                       # miss rate for demand accesses
system.l2.demand_miss_rate::total            0.159557                       # miss rate for demand accesses
system.l2.overall_miss_rate::.cpu.inst       0.002010                       # miss rate for overall accesses
system.l2.overall_miss_rate::.cpu.data       0.838900                       # miss rate for overall accesses
system.l2.overall_miss_rate::total           0.159557                       # miss rate for overall accesses
system.l2.demand_avg_miss_latency::.cpu.inst 95468.479604                       # average overall miss latency
system.l2.demand_avg_miss_latency::.cpu.data 97232.003270                       # average overall miss latency
system.l2.demand_avg_miss_latency::total 97213.966954                       # average overall miss latency
system.l2.overall_avg_miss_latency::.cpu.inst 95468.479604                       # average overall miss latency
system.l2.overall_avg_miss_latency::.cpu.data 97232.003270                       # average overall miss latency
system.l2.overall_avg_miss_latency::total 97213.966954                       # average overall miss latency
system.l2.blocked_cycles::no_mshrs                  0                       # number of cycles access was blocked
system.l2.blocked_cycles::no_targets                0                       # number of cycles access was blocked
system.l2.blocked::no_mshrs                         0                       # number of cycles access was blocked
system.l2.blocked::no_targets                       0                       # number of cycles access was blocked
system.l2.avg_blocked_cycles::no_mshrs            nan                       # average number of cycles each access was blocked
system.l2.avg_blocked_cycles::no_targets          nan                       # average number of cycles each access was blocked
system.l2.writebacks::.writebacks               12656                       # number of writebacks
system.l2.writebacks::total                     12656                       # number of writebacks
system.l2.demand_mshr_hits::.cpu.inst               1                       # number of demand (read+write) MSHR hits
system.l2.demand_mshr_hits::.cpu.data               4                       # number of demand (read+write) MSHR hits
system.l2.demand_mshr_hits::total                   5                       # number of demand (read+write) MSHR hits
system.l2.overall_mshr_hits::.cpu.inst              1                       # number of overall MSHR hits
system.l2.overall_mshr_hits::.cpu.data              4                       # number of overall MSHR hits
system.l2.overall_mshr_hits::total                  5                       # number of overall MSHR hits
system.l2.demand_mshr_misses::.cpu.inst           808                       # number of demand (read+write) MSHR misses
system.l2.demand_mshr_misses::.cpu.data         78288                       # number of demand (read+write) MSHR misses
system.l2.demand_mshr_misses::total             79096                       # number of demand (read+write) MSHR misses
system.l2.overall_mshr_misses::.cpu.inst          808                       # number of overall MSHR misses
system.l2.overall_mshr_misses::.cpu.data        78288                       # number of overall MSHR misses
system.l2.overall_mshr_misses::total            79096                       # number of overall MSHR misses
system.l2.demand_mshr_miss_latency::.cpu.inst     61046000                       # number of demand (read+write) MSHR miss cycles
system.l2.demand_mshr_miss_latency::.cpu.data   6046390000                       # number of demand (read+write) MSHR miss cycles
system.l2.demand_mshr_miss_latency::total   6107436000                       # number of demand (read+write) MSHR miss cycles
system.l2.overall_mshr_miss_latency::.cpu.inst     61046000                       # number of overall MSHR miss cycles
system.l2.overall_mshr_miss_latency::.cpu.data   6046390000                       # number of overall MSHR miss cycles
system.l2.overall_mshr_miss_latency::total   6107436000                       # number of overall MSHR miss cycles
system.l2.demand_mshr_miss_rate::.cpu.inst     0.002008                       # mshr miss rate for demand accesses
system.l2.demand_mshr_miss_rate::.cpu.data     0.838857                       # mshr miss rate for demand accesses
system.l2.demand_mshr_miss_rate::total       0.159547                       # mshr miss rate for demand accesses
system.l2.overall_mshr_miss_rate::.cpu.inst     0.002008                       # mshr miss rate for overall accesses
system.l2.overall_mshr_miss_rate::.cpu.data     0.838857                       # mshr miss rate for overall accesses
system.l2.overall_mshr_miss_rate::total      0.159547                       # mshr miss rate for overall accesses
system.l2.demand_avg_mshr_miss_latency::.cpu.inst 75551.980198                       # average overall mshr miss latency
system.l2.demand_avg_mshr_miss_latency::.cpu.data 77232.653791                       # average overall mshr miss latency
system.l2.demand_avg_mshr_miss_latency::total 77215.484980                       # average overall mshr miss latency
system.l2.overall_avg_mshr_miss_latency::.cpu.inst 75551.980198                       # average overall mshr miss latency
system.l2.overall_avg_mshr_miss_latency::.cpu.data 77232.653791                       # average overall mshr miss latency
system.l2.overall_avg_mshr_miss_latency::total 77215.484980                       # average overall mshr miss latency
system.l2.replacements                          13563                       # number of replacements
system.l2.WritebackDirty_hits::.writebacks        87252                       # number of WritebackDirty hits
system.l2.WritebackDirty_hits::total            87252                       # number of WritebackDirty hits
system.l2.WritebackDirty_accesses::.writebacks        87252                       # number of WritebackDirty accesses(hits+misses)
system.l2.WritebackDirty_accesses::total        87252                       # number of WritebackDirty accesses(hits+misses)
system.l2.WritebackClean_hits::.writebacks       401742                       # number of WritebackClean hits
system.l2.WritebackClean_hits::total           401742                       # number of WritebackClean hits
system.l2.WritebackClean_accesses::.writebacks       401742                       # number of WritebackClean accesses(hits+misses)
system.l2.WritebackClean_accesses::total       401742                       # number of WritebackClean accesses(hits+misses)
system.l2.ReadExReq_hits::.cpu.data                 4                       # number of ReadExReq hits
system.l2.ReadExReq_hits::total                     4                       # number of ReadExReq hits
system.l2.ReadExReq_misses::.cpu.data           71613                       # number of ReadExReq misses
system.l2.ReadExReq_misses::total               71613                       # number of ReadExReq misses
system.l2.ReadExReq_miss_latency::.cpu.data   6972183000                       # number of ReadExReq miss cycles
system.l2.ReadExReq_miss_latency::total    6972183000                       # number of ReadExReq miss cycles
system.l2.ReadExReq_accesses::.cpu.data         71617                       # number of ReadExReq accesses(hits+misses)
system.l2.ReadExReq_accesses::total             71617                       # number of ReadExReq accesses(hits+misses)
system.l2.ReadExReq_miss_rate::.cpu.data     0.999944                       # miss rate for ReadExReq accesses
system.l2.ReadExReq_miss_rate::total         0.999944                       # miss rate for ReadExReq accesses
system.l2.ReadExReq_avg_miss_latency::.cpu.data 97359.180596                       # average ReadExReq miss latency
system.l2.ReadExReq_avg_miss_latency::total 97359.180596                       # average ReadExReq miss latency
system.l2.ReadExReq_mshr_misses::.cpu.data        71613                       # number of ReadExReq MSHR misses
system.l2.ReadExReq_mshr_misses::total          71613                       # number of ReadExReq MSHR misses
system.l2.ReadExReq_mshr_miss_latency::.cpu.data   5539923000                       # number of ReadExReq MSHR miss cycles
system.l2.ReadExReq_mshr_miss_latency::total   5539923000                       # number of ReadExReq MSHR miss cycles
system.l2.ReadExReq_mshr_miss_rate::.cpu.data     0.999944                       # mshr miss rate for ReadExReq accesses
system.l2.ReadExReq_mshr_miss_rate::total     0.999944                       # mshr miss rate for ReadExReq accesses
system.l2.ReadExReq_avg_mshr_miss_latency::.cpu.data 77359.180596                       # average ReadExReq mshr miss latency
system.l2.ReadExReq_avg_mshr_miss_latency::total 77359.180596                       # average ReadExReq mshr miss latency
system.l2.ReadCleanReq_hits::.cpu.inst         401617                       # number of ReadCleanReq hits
system.l2.ReadCleanReq_hits::total             401617                       # number of ReadCleanReq hits
system.l2.ReadCleanReq_misses::.cpu.inst          809                       # number of ReadCleanReq misses
system.l2.ReadCleanReq_misses::total              809                       # number of ReadCleanReq misses
system.l2.ReadCleanReq_miss_latency::.cpu.inst     77234000                       # number of ReadCleanReq miss cycles
system.l2.ReadCleanReq_miss_latency::total     77234000                       # number of ReadCleanReq miss cycles
system.l2.ReadCleanReq_accesses::.cpu.inst       402426                       # number of ReadCleanReq accesses(hits+misses)
system.l2.ReadCleanReq_accesses::total         402426                       # number of ReadCleanReq accesses(hits+misses)
system.l2.ReadCleanReq_miss_rate::.cpu.inst     0.002010                       # miss rate for ReadCleanReq accesses
system.l2.ReadCleanReq_miss_rate::total      0.002010                       # miss rate for ReadCleanReq accesses
system.l2.ReadCleanReq_avg_miss_latency::.cpu.inst 95468.479604                       # average ReadCleanReq miss latency
system.l2.ReadCleanReq_avg_miss_latency::total 95468.479604                       # average ReadCleanReq miss latency
system.l2.ReadCleanReq_mshr_hits::.cpu.inst            1                       # number of ReadCleanReq MSHR hits
system.l2.ReadCleanReq_mshr_hits::total             1                       # number of ReadCleanReq MSHR hits
system.l2.ReadCleanReq_mshr_misses::.cpu.inst          808                       # number of ReadCleanReq MSHR misses
system.l2.ReadCleanReq_mshr_misses::total          808                       # number of ReadCleanReq MSHR misses
system.l2.ReadCleanReq_mshr_miss_latency::.cpu.inst     61046000                       # number of ReadCleanReq MSHR miss cycles
system.l2.ReadCleanReq_mshr_miss_latency::total     61046000                       # number of ReadCleanReq MSHR miss cycles
system.l2.ReadCleanReq_mshr_miss_rate::.cpu.inst     0.002008                       # mshr miss rate for ReadCleanReq accesses
system.l2.ReadCleanReq_mshr_miss_rate::total     0.002008                       # mshr miss rate for ReadCleanReq accesses
system.l2.ReadCleanReq_avg_mshr_miss_latency::.cpu.inst 75551.980198                       # average ReadCleanReq mshr miss latency
system.l2.ReadCleanReq_avg_mshr_miss_latency::total 75551.980198                       # average ReadCleanReq mshr miss latency
system.l2.ReadSharedReq_hits::.cpu.data         15031                       # number of ReadSharedReq hits
system.l2.ReadSharedReq_hits::total             15031                       # number of ReadSharedReq hits
system.l2.ReadSharedReq_misses::.cpu.data         6679                       # number of ReadSharedReq misses
system.l2.ReadSharedReq_misses::total            6679                       # number of ReadSharedReq misses
system.l2.ReadSharedReq_miss_latency::.cpu.data    640305000                       # number of ReadSharedReq miss cycles
system.l2.ReadSharedReq_miss_latency::total    640305000                       # number of ReadSharedReq miss cycles
system.l2.ReadSharedReq_accesses::.cpu.data        21710                       # number of ReadSharedReq accesses(hits+misses)
system.l2.ReadSharedReq_accesses::total         21710                       # number of ReadSharedReq accesses(hits+misses)
system.l2.ReadSharedReq_miss_rate::.cpu.data     0.307646                       # miss rate for ReadSharedReq accesses
system.l2.ReadSharedReq_miss_rate::total     0.307646                       # miss rate for ReadSharedReq accesses
system.l2.ReadSharedReq_avg_miss_latency::.cpu.data 95868.393472                       # average ReadSharedReq miss latency
system.l2.ReadSharedReq_avg_miss_latency::total 95868.393472                       # average ReadSharedReq miss latency
system.l2.ReadSharedReq_mshr_hits::.cpu.data            4                       # number of ReadSharedReq MSHR hits
system.l2.ReadSharedReq_mshr_hits::total            4                       # number of ReadSharedReq MSHR hits
system.l2.ReadSharedReq_mshr_misses::.cpu.data         6675                       # number of ReadSharedReq MSHR misses
system.l2.ReadSharedReq_mshr_misses::total         6675                       # number of ReadSharedReq MSHR misses
system.l2.ReadSharedReq_mshr_miss_latency::.cpu.data    506467000                       # number of ReadSharedReq MSHR miss cycles
system.l2.ReadSharedReq_mshr_miss_latency::total    506467000                       # number of ReadSharedReq MSHR miss cycles
system.l2.ReadSharedReq_mshr_miss_rate::.cpu.data     0.307462                       # mshr miss rate for ReadSharedReq accesses
system.l2.ReadSharedReq_mshr_miss_rate::total     0.307462                       # mshr miss rate for ReadSharedReq accesses
system.l2.ReadSharedReq_avg_mshr_miss_latency::.cpu.data 75875.205993                       # average ReadSharedReq mshr miss latency
system.l2.ReadSharedReq_avg_mshr_miss_latency::total 75875.205993                       # average ReadSharedReq mshr miss latency
system.l2.power_state.pwrStateResidencyTicks::UNDEFINED 121456222000                       # Cumulative time (in ticks) in various power states
system.l2.tags.tagsinuse                 52367.945698                       # Cycle average of tags in use
system.l2.tags.total_refs                      988757                       # Total number of references to valid blocks.
system.l2.tags.sampled_refs                     79099                       # Sample count of references to valid blocks.
system.l2.tags.avg_refs                     12.500247                       # Average number of references to valid blocks.
system.l2.tags.warmup_cycle                     87000                       # Cycle when the warmup percentage was hit.
system.l2.tags.occ_blocks::.writebacks       0.791049                       # Average occupied blocks per requestor
system.l2.tags.occ_blocks::.cpu.inst       522.553535                       # Average occupied blocks per requestor
system.l2.tags.occ_blocks::.cpu.data     51844.601113                       # Average occupied blocks per requestor
system.l2.tags.occ_percent::.writebacks      0.000012                       # Average percentage of cache occupancy
system.l2.tags.occ_percent::.cpu.inst        0.007974                       # Average percentage of cache occupancy
system.l2.tags.occ_percent::.cpu.data        0.791086                       # Average percentage of cache occupancy
system.l2.tags.occ_percent::total            0.799071                       # Average percentage of cache occupancy
system.l2.tags.occ_task_id_blocks::1024         65536                       # Occupied blocks per task id
system.l2.tags.age_task_id_blocks_1024::0            3                       # Occupied blocks per task id
system.l2.tags.age_task_id_blocks_1024::1           32                       # Occupied blocks per task id
system.l2.tags.age_task_id_blocks_1024::2          345                       # Occupied blocks per task id
system.l2.tags.age_task_id_blocks_1024::3         3424                       # Occupied blocks per task id
system.l2.tags.age_task_id_blocks_1024::4        61732                       # Occupied blocks per task id
system.l2.tags.occ_task_id_percent::1024            1                       # Percentage of cache occupancy per task id
system.l2.tags.tag_accesses                   7989195                       # Number of tag accesses
system.l2.tags.data_accesses                  7989195                       # Number of data accesses
system.l2.tags.power_state.pwrStateResidencyTicks::UNDEFINED 121456222000                       # Cumulative time (in ticks) in various power states
system.mem_ctrls.avgPriority_.writebacks::samples      8173.00                       # Average QoS priority value for accepted requests
system.mem_ctrls.avgPriority_.cpu.inst::samples       808.00                       # Average QoS priority value for accepted requests
system.mem_ctrls.avgPriority_.cpu.data::samples     78288.00                       # Average QoS priority value for accepted requests
system.mem_ctrls.priorityMinLatency      0.000000018750                       # per QoS priority minimum request to response latency (s)
system.mem_ctrls.priorityMaxLatency      0.036637714500                       # per QoS priority maximum request to response latency (s)
system.mem_ctrls.numReadWriteTurnArounds          452                       # Number of turnarounds from READ to WRITE
system.mem_ctrls.numWriteReadTurnArounds          452                       # Number of turnarounds from WRITE to READ
system.mem_ctrls.numStayReadState              201997                       # Number of times bus staying in READ state
system.mem_ctrls.numStayWriteState               7720                       # Number of times bus staying in WRITE state
system.mem_ctrls.readReqs                       79096                       # Number of read requests accepted
system.mem_ctrls.writeReqs                      12656                       # Number of write requests accepted
system.mem_ctrls.readBursts                     79096                       # Number of controller read bursts, including those serviced by the write queue
system.mem_ctrls.writeBursts                    12656                       # Number of controller write bursts, including those merged in the write queue
system.mem_ctrls.servicedByWrQ                      0                       # Number of controller read bursts serviced by the write queue
system.mem_ctrls.mergedWrBursts                  4483                       # Number of controller write bursts merged with an existing one
system.mem_ctrls.neitherReadNorWriteReqs            0                       # Number of requests that are neither read nor write
system.mem_ctrls.avgRdQLen                       1.04                       # Average read queue length when enqueuing
system.mem_ctrls.avgWrQLen                       9.58                       # Average write queue length when enqueuing
system.mem_ctrls.numRdRetry                         0                       # Number of times read queue was full causing retry
system.mem_ctrls.numWrRetry                         0                       # Number of times write queue was full causing retry
system.mem_ctrls.readPktSize::0                     0                       # Read request sizes (log2)
system.mem_ctrls.readPktSize::1                     0                       # Read request sizes (log2)
[...]
system.mem_ctrls.dram.bw_write::.writebacks      3334469                       # Write bandwidth from this memory (bytes/s)
system.mem_ctrls.dram.bw_write::total         3334469                       # Write bandwidth from this memory (bytes/s)
system.mem_ctrls.dram.bw_total::.writebacks      3334469                       # Total bandwidth to/from this memory (bytes/s)
system.mem_ctrls.dram.bw_total::.cpu.inst       212883                       # Total bandwidth to/from this memory (bytes/s)
system.mem_ctrls.dram.bw_total::.cpu.data     20626494                       # Total bandwidth to/from this memory (bytes/s)
system.mem_ctrls.dram.bw_total::total        24173846                       # Total bandwidth to/from this memory (bytes/s)
system.mem_ctrls.dram.readBursts                79096                       # Number of DRAM read bursts
system.mem_ctrls.dram.writeBursts                8145                       # Number of DRAM write bursts
system.mem_ctrls.dram.perBankRdBursts::0         5007                       # Per bank write bursts
system.mem_ctrls.dram.perBankRdBursts::1         4966                       # Per bank write bursts
system.mem_ctrls.dram.perBankRdBursts::2         4935                       # Per bank write bursts
system.mem_ctrls.dram.perBankRdBursts::3         5132                       # Per bank write bursts
system.mem_ctrls.dram.perBankRdBursts::4         4859                       # Per bank write bursts
system.mem_ctrls.dram.perBankRdBursts::5         4753                       # Per bank write bursts
system.mem_ctrls.dram.perBankRdBursts::6         4883                       # Per bank write bursts
system.mem_ctrls.dram.perBankRdBursts::7         4889                       # Per bank write bursts
system.mem_ctrls.dram.perBankRdBursts::8         4919                       # Per bank write bursts
system.mem_ctrls.dram.perBankRdBursts::9         4968                       # Per bank write bursts
system.mem_ctrls.dram.perBankRdBursts::10         4947                       # Per bank write bursts
system.mem_ctrls.dram.perBankRdBursts::11         4967                       # Per bank write bursts
system.mem_ctrls.dram.perBankRdBursts::12         4955                       # Per bank write bursts
system.mem_ctrls.dram.perBankRdBursts::13         4931                       # Per bank write bursts
system.mem_ctrls.dram.perBankRdBursts::14         4997                       # Per bank write bursts
system.mem_ctrls.dram.perBankRdBursts::15         4988                       # Per bank write bursts
system.mem_ctrls.dram.perBankWrBursts::0          575                       # Per bank write bursts
system.mem_ctrls.dram.perBankWrBursts::1          469                       # Per bank write bursts
system.mem_ctrls.dram.perBankWrBursts::2          569                       # Per bank write bursts
system.mem_ctrls.dram.perBankWrBursts::3          561                       # Per bank write bursts
system.mem_ctrls.dram.perBankWrBursts::4          462                       # Per bank write bursts
system.mem_ctrls.dram.perBankWrBursts::5          395                       # Per bank write bursts
system.mem_ctrls.dram.perBankWrBursts::6          494                       # Per bank write bursts
system.mem_ctrls.dram.perBankWrBursts::7          531                       # Per bank write bursts
system.mem_ctrls.dram.perBankWrBursts::8          481                       # Per bank write bursts
system.mem_ctrls.dram.perBankWrBursts::9          496                       # Per bank write bursts
system.mem_ctrls.dram.perBankWrBursts::10          517                       # Per bank write bursts
system.mem_ctrls.dram.perBankWrBursts::11          475                       # Per bank write bursts
system.mem_ctrls.dram.perBankWrBursts::12          523                       # Per bank write bursts
system.mem_ctrls.dram.perBankWrBursts::13          539                       # Per bank write bursts
system.mem_ctrls.dram.perBankWrBursts::14          487                       # Per bank write bursts
system.mem_ctrls.dram.perBankWrBursts::15          571                       # Per bank write bursts
system.mem_ctrls.dram.totQLat               565613750                       # Total ticks spent queuing
system.mem_ctrls.dram.totBusLat             395480000                       # Total ticks spent in databus transfers
system.mem_ctrls.dram.totMemAccLat         2048663750                       # Total ticks spent from burst creation until serviced by the DRAM
system.mem_ctrls.dram.avgQLat                 7150.98                       # Average queueing delay per DRAM burst
system.mem_ctrls.dram.avgBusLat               5000.00                       # Average bus latency per DRAM burst
system.mem_ctrls.dram.avgMemAccLat           25900.98                       # Average memory access latency per DRAM burst
system.mem_ctrls.dram.readRowHits               59836                       # Number of row buffer hits during reads
system.mem_ctrls.dram.writeRowHits               6908                       # Number of row buffer hits during writes
system.mem_ctrls.dram.readRowHitRate            75.65                       # Row buffer hit rate for reads
system.mem_ctrls.dram.writeRowHitRate           84.81                       # Row buffer hit rate for writes
system.mem_ctrls.dram.bytesPerActivate::samples        20496                       # Bytes accessed per row activation
system.mem_ctrls.dram.bytesPerActivate::mean   272.409055                       # Bytes accessed per row activation
system.mem_ctrls.dram.bytesPerActivate::gmean   216.663386                       # Bytes accessed per row activation
system.mem_ctrls.dram.bytesPerActivate::stdev   222.436718                       # Bytes accessed per row activation
system.mem_ctrls.dram.bytesPerActivate::0-127         1474      7.19%      7.19% # Bytes accessed per row activation
system.mem_ctrls.dram.bytesPerActivate::128-255        13972     68.17%     75.36% # Bytes accessed per row activation
system.mem_ctrls.dram.bytesPerActivate::256-383         1430      6.98%     82.34% # Bytes accessed per row activation
system.mem_ctrls.dram.bytesPerActivate::384-511          647      3.16%     85.49% # Bytes accessed per row activation
system.mem_ctrls.dram.bytesPerActivate::512-639          848      4.14%     89.63% # Bytes accessed per row activation
system.mem_ctrls.dram.bytesPerActivate::640-767          585      2.85%     92.49% # Bytes accessed per row activation
system.mem_ctrls.dram.bytesPerActivate::768-895          238      1.16%     93.65% # Bytes accessed per row activation
system.mem_ctrls.dram.bytesPerActivate::896-1023         1048      5.11%     98.76% # Bytes accessed per row activation
system.mem_ctrls.dram.bytesPerActivate::1024-1151          254      1.24%    100.00% # Bytes accessed per row activation
system.mem_ctrls.dram.bytesPerActivate::total        20496                       # Bytes accessed per row activation
system.mem_ctrls.dram.bytesRead               5062144                       # Total number of bytes read from DRAM
system.mem_ctrls.dram.bytesWritten             521280                       # Total number of bytes written to DRAM
system.mem_ctrls.dram.avgRdBW               41.678754                       # Average DRAM read bandwidth in MiBytes/s
system.mem_ctrls.dram.avgWrBW                4.291917                       # Average DRAM write bandwidth in MiBytes/s
system.mem_ctrls.dram.peakBW                 12800.00                       # Theoretical peak bandwidth in MiByte/s
system.mem_ctrls.dram.busUtil                    0.36                       # Data bus utilization in percentage
system.mem_ctrls.dram.busUtilRead                0.33                       # Data bus utilization in percentage for reads
system.mem_ctrls.dram.busUtilWrite               0.03                       # Data bus utilization in percentage for writes
system.mem_ctrls.dram.pageHitRate               76.51                       # Row buffer hit rate, read and write combined
system.mem_ctrls.dram.power_state.pwrStateResidencyTicks::UNDEFINED 121456222000                       # Cumulative time (in ticks) in various power states
system.mem_ctrls.dram.rank0.actEnergy        74705820                       # Energy for activate commands per rank (pJ)
system.mem_ctrls.dram.rank0.preEnergy        39703290                       # Energy for precharge commands per rank (pJ)
system.mem_ctrls.dram.rank0.readEnergy      281487360                       # Energy for read commands per rank (pJ)
system.mem_ctrls.dram.rank0.writeEnergy      21172320                       # Energy for write commands per rank (pJ)
system.mem_ctrls.dram.rank0.refreshEnergy 9587154720.000002                       # Energy for refresh commands per rank (pJ)
system.mem_ctrls.dram.rank0.actBackEnergy  25627793940                       # Energy for active background per rank (pJ)
system.mem_ctrls.dram.rank0.preBackEnergy  25057889280                       # Energy for precharge background per rank (pJ)
system.mem_ctrls.dram.rank0.actPowerDownEnergy            0                       # Energy for active power-down per rank (pJ)
system.mem_ctrls.dram.rank0.prePowerDownEnergy            0                       # Energy for precharge power-down per rank (pJ)
system.mem_ctrls.dram.rank0.selfRefreshEnergy            0                       # Energy for self refresh per rank (pJ)
system.mem_ctrls.dram.rank0.totalEnergy   60689906730                       # Total energy per rank (pJ)
system.mem_ctrls.dram.rank0.averagePower   499.685448                       # Core power per rank (mW)
system.mem_ctrls.dram.rank0.totalIdleTime            0                       # Total Idle time Per DRAM Rank
system.mem_ctrls.dram.rank0.pwrStateTime::IDLE  64917840250                       # Time in different power states
system.mem_ctrls.dram.rank0.pwrStateTime::REF   4055480000                       # Time in different power states
system.mem_ctrls.dram.rank0.pwrStateTime::SREF            0                       # Time in different power states
system.mem_ctrls.dram.rank0.pwrStateTime::PRE_PDN            0                       # Time in different power states
system.mem_ctrls.dram.rank0.pwrStateTime::ACT  52482901750                       # Time in different power states
system.mem_ctrls.dram.rank0.pwrStateTime::ACT_PDN            0                       # Time in different power states
system.mem_ctrls.dram.rank1.actEnergy        71642760                       # Energy for activate commands per rank (pJ)
system.mem_ctrls.dram.rank1.preEnergy        38079030                       # Energy for precharge commands per rank (pJ)
system.mem_ctrls.dram.rank1.readEnergy      283258080                       # Energy for read commands per rank (pJ)
system.mem_ctrls.dram.rank1.writeEnergy      21344580                       # Energy for write commands per rank (pJ)
system.mem_ctrls.dram.rank1.refreshEnergy 9587154720.000002                       # Energy for refresh commands per rank (pJ)
system.mem_ctrls.dram.rank1.actBackEnergy  25103011470                       # Energy for active background per rank (pJ)
system.mem_ctrls.dram.rank1.preBackEnergy  25499811360                       # Energy for precharge background per rank (pJ)
system.mem_ctrls.dram.rank1.actPowerDownEnergy            0                       # Energy for active power-down per rank (pJ)
system.mem_ctrls.dram.rank1.prePowerDownEnergy            0                       # Energy for precharge power-down per rank (pJ)
system.mem_ctrls.dram.rank1.selfRefreshEnergy            0                       # Energy for self refresh per rank (pJ)
system.mem_ctrls.dram.rank1.totalEnergy   60604302000                       # Total energy per rank (pJ)
system.mem_ctrls.dram.rank1.averagePower   498.980629                       # Core power per rank (mW)
system.mem_ctrls.dram.rank1.totalIdleTime            0                       # Total Idle time Per DRAM Rank
system.mem_ctrls.dram.rank1.pwrStateTime::IDLE  66071028250                       # Time in different power states
system.mem_ctrls.dram.rank1.pwrStateTime::REF   4055480000                       # Time in different power states
system.mem_ctrls.dram.rank1.pwrStateTime::SREF            0                       # Time in different power states
system.mem_ctrls.dram.rank1.pwrStateTime::PRE_PDN            0                       # Time in different power states
system.mem_ctrls.dram.rank1.pwrStateTime::ACT  51329713750                       # Time in different power states
system.mem_ctrls.dram.rank1.pwrStateTime::ACT_PDN            0                       # Time in different power states
system.mem_ctrls.power_state.pwrStateResidencyTicks::UNDEFINED 121456222000                       # Cumulative time (in ticks) in various power states
system.membus.trans_dist::ReadResp               7483                       # Transaction distribution
system.membus.trans_dist::WritebackDirty        12656                       # Transaction distribution
system.membus.trans_dist::CleanEvict              219                       # Transaction distribution
system.membus.trans_dist::ReadExReq             71613                       # Transaction distribution
system.membus.trans_dist::ReadExResp            71613                       # Transaction distribution
system.membus.trans_dist::ReadSharedReq          7483                       # Transaction distribution
system.membus.pkt_count_system.l2.mem_side_port::system.mem_ctrls.port       171067                       # Packet count per connected requestor and responder (bytes)
system.membus.pkt_count::total                 171067                       # Packet count per connected requestor and responder (bytes)
system.membus.pkt_size_system.l2.mem_side_port::system.mem_ctrls.port      2936064                       # Cumulative packet size per connected requestor and responder (bytes)
system.membus.pkt_size::total                 2936064                       # Cumulative packet size per connected requestor and responder (bytes)
system.membus.snoops                                0                       # Total snoops (count)
system.membus.snoopTraffic                          0                       # Total snoop traffic (bytes)
system.membus.snoop_fanout::samples             79096                       # Request fanout histogram
system.membus.snoop_fanout::mean                    0                       # Request fanout histogram
system.membus.snoop_fanout::stdev                   0                       # Request fanout histogram
system.membus.snoop_fanout::underflows              0      0.00%      0.00% # Request fanout histogram
system.membus.snoop_fanout::0                   79096    100.00%    100.00% # Request fanout histogram
system.membus.snoop_fanout::1                       0      0.00%    100.00% # Request fanout histogram
system.membus.snoop_fanout::overflows               0      0.00%    100.00% # Request fanout histogram
system.membus.snoop_fanout::min_value               0                       # Request fanout histogram
system.membus.snoop_fanout::max_value               0                       # Request fanout histogram
system.membus.snoop_fanout::total               79096                       # Request fanout histogram
system.membus.power_state.pwrStateResidencyTicks::UNDEFINED 121456222000                       # Cumulative time (in ticks) in various power states
system.membus.reqLayer0.occupancy           117283000                       # Layer occupancy (ticks)
system.membus.reqLayer0.utilization               0.1                       # Layer utilization (%)
system.membus.respLayer1.occupancy          262162250                       # Layer occupancy (ticks)
system.membus.respLayer1.utilization              0.2                       # Layer utilization (%)
system.tol2bus.trans_dist::ReadResp            424136                       # Transaction distribution
system.tol2bus.trans_dist::WritebackDirty        99908                       # Transaction distribution
system.tol2bus.trans_dist::WritebackClean       401748                       # Transaction distribution
system.tol2bus.trans_dist::CleanEvict            4934                       # Transaction distribution
system.tol2bus.trans_dist::ReadExReq            71617                       # Transaction distribution
system.tol2bus.trans_dist::ReadExResp           71617                       # Transaction distribution
system.tol2bus.trans_dist::ReadCleanReq        402426                       # Transaction distribution
system.tol2bus.trans_dist::ReadSharedReq        21710                       # Transaction distribution
system.tol2bus.pkt_count_system.cpu.icache.mem_side_port::system.l2.cpu_side_port      1206600                       # Packet count per connected requestor and responder (bytes)
system.tol2bus.pkt_count_system.cpu.dcache.mem_side_port::system.l2.cpu_side_port       277933                       # Packet count per connected requestor and responder (bytes)
system.tol2bus.pkt_count::total               1484533                       # Packet count per connected requestor and responder (bytes)
system.tol2bus.pkt_size_system.cpu.icache.mem_side_port::system.l2.cpu_side_port     25733568                       # Cumulative packet size per connected requestor and responder (bytes)
system.tol2bus.pkt_size_system.cpu.dcache.mem_side_port::system.l2.cpu_side_port      5778528                       # Cumulative packet size per connected requestor and responder (bytes)
system.tol2bus.pkt_size::total               31512096                       # Cumulative packet size per connected requestor and responder (bytes)
system.tol2bus.snoops                           13563                       # Total snoops (count)
system.tol2bus.snoopTraffic                    404992                       # Total snoop traffic (bytes)
system.tol2bus.snoop_fanout::samples           509316                       # Request fanout histogram
system.tol2bus.snoop_fanout::mean            0.001402                       # Request fanout histogram
system.tol2bus.snoop_fanout::stdev           0.037625                       # Request fanout histogram
system.tol2bus.snoop_fanout::underflows             0      0.00%      0.00% # Request fanout histogram
system.tol2bus.snoop_fanout::0                 508606     99.86%     99.86% # Request fanout histogram
system.tol2bus.snoop_fanout::1                    706      0.14%    100.00% # Request fanout histogram
system.tol2bus.snoop_fanout::2                      4      0.00%    100.00% # Request fanout histogram
system.tol2bus.snoop_fanout::overflows              0      0.00%    100.00% # Request fanout histogram
system.tol2bus.snoop_fanout::min_value              0                       # Request fanout histogram
system.tol2bus.snoop_fanout::max_value              2                       # Request fanout histogram
system.tol2bus.snoop_fanout::total             509316                       # Request fanout histogram
system.tol2bus.power_state.pwrStateResidencyTicks::UNDEFINED 121456222000                       # Cumulative time (in ticks) in various power states
system.tol2bus.reqLayer0.occupancy         1477780000                       # Layer occupancy (ticks)
system.tol2bus.reqLayer0.utilization              1.2                       # Layer utilization (%)
system.tol2bus.respLayer0.occupancy         804852999                       # Layer occupancy (ticks)
system.tol2bus.respLayer0.utilization             0.7                       # Layer utilization (%)
system.tol2bus.respLayer1.occupancy         186659994                       # Layer occupancy (ticks)
system.tol2bus.respLayer1.utilization             0.2                       # Layer utilization (%)
system.voltage_domain.voltage                       1                       # Voltage in Volts

---------- End Simulation Statistics   ----------
