
---------- Begin Simulation Statistics ----------
final_tick                               165435734000                       # Number of ticks from beginning of simulation (restored from checkpoints and never reset)
host_inst_rate                                 256485                       # Simulator instruction rate (inst/s)
host_mem_usage                                 658076                       # Number of bytes of host memory used
host_op_rate                                   256989                       # Simulator op (including micro ops) rate (op/s)
host_seconds                                   389.89                       # Real time elapsed on the host
host_tick_rate                              424318364                       # Simulator tick rate (ticks/s)
sim_freq                                 1000000000000                       # Frequency of simulated ticks
sim_insts                                   100000001                       # Number of instructions simulated
sim_ops                                     100196356                       # Number of ops (including micro ops) simulated
sim_seconds                                  0.165436                       # Number of seconds simulated
sim_ticks                                165435734000                       # Number of ticks simulated
system.cpu.committedInsts                   100000001                       # Number of instructions committed
system.cpu.committedOps                     100196356                       # Number of ops (including micro ops) committed
system.cpu.cpi                               1.654357                       # CPI: cycles per instruction
system.cpu.discardedOps                        189515                       # Number of ops (including micro ops) which were discarded before commit
system.cpu.idleCycles                        32556405                       # Total number of cycles that the object has spent stopped
system.cpu.ipc                               0.604464                       # IPC: instructions per cycle
system.cpu.numCycles                        165435734                       # number of cpu cycles simulated
system.cpu.numFetchSuspends                         0                       # Number of times Execute suspended instruction fetching
system.cpu.numWorkItemsCompleted                    0                       # number of work items this cpu completed
system.cpu.numWorkItemsStarted                      0                       # number of work items this cpu started
system.cpu.op_class_0::No_OpClass                   0      0.00%      0.00% # Class of committed instruction
system.cpu.op_class_0::IntAlu                46526863     46.44%     46.44% # Class of committed instruction
system.cpu.op_class_0::IntMult                  20723      0.02%     46.46% # Class of committed instruction
system.cpu.op_class_0::IntDiv                       0      0.00%     46.46% # Class of committed instruction
system.cpu.op_class_0::FloatAdd                     0      0.00%     46.46% # Class of committed instruction
system.cpu.op_class_0::FloatCmp                     0      0.00%     46.46% # Class of committed instruction
system.cpu.op_class_0::FloatCvt                     0      0.00%     46.46% # Class of committed instruction
system.cpu.op_class_0::FloatMult                    0      0.00%     46.46% # Class of committed instruction
system.cpu.op_class_0::FloatMultAcc                 0      0.00%     46.46% # Class of committed instruction
system.cpu.op_class_0::FloatDiv                     0      0.00%     46.46% # Class of committed instruction
system.cpu.op_class_0::FloatMisc                    0      0.00%     46.46% # Class of committed instruction
system.cpu.op_class_0::FloatSqrt                    0      0.00%     46.46% # Class of committed instruction
system.cpu.op_class_0::SimdAdd                      0      0.00%     46.46% # Class of committed instruction
system.cpu.op_class_0::SimdAddAcc                   0      0.00%     46.46% # Class of committed instruction
system.cpu.op_class_0::SimdAlu                      0      0.00%     46.46% # Class of committed instruction
system.cpu.op_class_0::SimdCmp                      0      0.00%     46.46% # Class of committed instruction
system.cpu.op_class_0::SimdCvt                      0      0.00%     46.46% # Class of committed instruction
system.cpu.op_class_0::SimdMisc                     0      0.00%     46.46% # Class of committed instruction
system.cpu.op_class_0::SimdMult                     0      0.00%     46.46% # Class of committed instruction
system.cpu.op_class_0::SimdMultAcc                  0      0.00%     46.46% # Class of committed instruction
system.cpu.op_class_0::SimdShift                    0      0.00%     46.46% # Class of committed instruction
system.cpu.op_class_0::SimdShiftAcc                 0      0.00%     46.46% # Class of committed instruction
system.cpu.op_class_0::SimdDiv                      0      0.00%     46.46% # Class of committed instruction
system.cpu.op_class_0::SimdSqrt                     0      0.00%     46.46% # Class of committed instruction
system.cpu.op_class_0::SimdFloatAdd                 0      0.00%     46.46% # Class of committed instruction
system.cpu.op_class_0::SimdFloatAlu                 0      0.00%     46.46% # Class of committed instruction
system.cpu.op_class_0::SimdFloatCmp                 0      0.00%     46.46% # Class of committed instruction
system.cpu.op_class_0::SimdFloatCvt                 0      0.00%     46.46% # Class of committed instruction
system.cpu.op_class_0::SimdFloatDiv                 0      0.00%     46.46% # Class of committed instruction
system.cpu.op_class_0::SimdFloatMisc               18      0.00%     46.46% # Class of committed instruction
system.cpu.op_class_0::SimdFloatMult                0      0.00%     46.46% # Class of committed instruction
system.cpu.op_class_0::SimdFloatMultAcc             0      0.00%     46.46% # Class of committed instruction
system.cpu.op_class_0::SimdFloatSqrt                0      0.00%     46.46% # Class of committed instruction
system.cpu.op_class_0::SimdReduceAdd                0      0.00%     46.46% # Class of committed instruction
system.cpu.op_class_0::SimdReduceAlu                0      0.00%     46.46% # Class of committed instruction
system.cpu.op_class_0::SimdReduceCmp                0      0.00%     46.46% # Class of committed instruction
system.cpu.op_class_0::SimdFloatReduceAdd            0      0.00%     46.46% # Class of committed instruction
system.cpu.op_class_0::SimdFloatReduceCmp            0      0.00%     46.46% # Class of committed instruction
system.cpu.op_class_0::SimdAes                      0      0.00%     46.46% # Class of committed instruction
system.cpu.op_class_0::SimdAesMix                   0      0.00%     46.46% # Class of committed instruction
system.cpu.op_class_0::SimdSha1Hash                 0      0.00%     46.46% # Class of committed instruction
system.cpu.op_class_0::SimdSha1Hash2                0      0.00%     46.46% # Class of committed instruction
system.cpu.op_class_0::SimdSha256Hash               0      0.00%     46.46% # Class of committed instruction
system.cpu.op_class_0::SimdSha256Hash2              0      0.00%     46.46% # Class of committed instruction
system.cpu.op_class_0::SimdShaSigma2                0      0.00%     46.46% # Class of committed instruction
system.cpu.op_class_0::SimdShaSigma3                0      0.00%     46.46% # Class of committed instruction
system.cpu.op_class_0::SimdPredAlu                  0      0.00%     46.46% # Class of committed instruction
system.cpu.op_class_0::MemRead               42690537     42.61%     89.06% # Class of committed instruction
system.cpu.op_class_0::MemWrite              10958215     10.94%    100.00% # Class of committed instruction
system.cpu.op_class_0::FloatMemRead                 0      0.00%    100.00% # Class of committed instruction
system.cpu.op_class_0::FloatMemWrite                0      0.00%    100.00% # Class of committed instruction
system.cpu.op_class_0::IprAccess                    0      0.00%    100.00% # Class of committed instruction
system.cpu.op_class_0::InstPrefetch                 0      0.00%    100.00% # Class of committed instruction
system.cpu.op_class_0::total                100196356                       # Class of committed instruction
system.cpu.tickCycles                       132879329                       # Number of cycles that the object actually ticked
system.cpu.workload.numSyscalls                    85                       # Number of system calls
system.membus.snoop_filter.hit_multi_requests            0                       # Number of requests hitting in the snoop filter with multiple (>1) holders of the requested data.
system.membus.snoop_filter.hit_multi_snoops            0                       # Number of snoops hitting in the snoop filter with multiple (>1) holders of the requested data.
system.membus.snoop_filter.hit_single_requests       210473                       # Number of requests hitting in the snoop filter with a single holder of the requested data.
system.membus.snoop_filter.hit_single_snoops            0                       # Number of snoops hitting in the snoop filter with a single holder of the requested data.
system.membus.snoop_filter.tot_requests        437759                       # Total number of requests made to the snoop filter.
system.membus.snoop_filter.tot_snoops               0                       # Total number of snoops made to the snoop filter.
system.tol2bus.snoop_filter.hit_multi_requests          380                       # Number of requests hitting in the snoop filter with multiple (>1) holders of the requested data.
system.tol2bus.snoop_filter.hit_multi_snoops            2                       # Number of snoops hitting in the snoop filter with multiple (>1) holders of the requested data.
system.tol2bus.snoop_filter.hit_single_requests       875008                       # Number of requests hitting in the snoop filter with a single holder of the requested data.
system.tol2bus.snoop_filter.hit_single_snoops          617                       # Number of snoops hitting in the snoop filter with a single holder of the requested data.
system.tol2bus.snoop_filter.tot_requests      1750966                       # Total number of requests made to the snoop filter.
system.tol2bus.snoop_filter.tot_snoops            619                       # Total number of snoops made to the snoop filter.
system.clk_domain.clock                          1000                       # Clock period in ticks
system.cpu.branchPred.lookups                 4485767                       # Number of BP lookups
system.cpu.branchPred.condPredicted           3735453                       # Number of conditional branches predicted
system.cpu.branchPred.condIncorrect             81005                       # Number of conditional branches incorrect
system.cpu.branchPred.BTBLookups              2103830                       # Number of BTB lookups
system.cpu.branchPred.BTBHits                 2101828                       # Number of BTB hits
system.cpu.branchPred.BTBHitPct             99.904840                       # BTB Hit Percentage
system.cpu.branchPred.RASUsed                   65379                       # Number of times the RAS was used to get a target.
system.cpu.branchPred.RASIncorrect                 14                       # Number of incorrect RAS predictions.
system.cpu.branchPred.indirectLookups             691                       # Number of indirect predictor lookups.
system.cpu.branchPred.indirectHits                288                       # Number of indirect target hits.
system.cpu.branchPred.indirectMisses              403                       # Number of indirect misses.
system.cpu.branchPred.indirectMispredicted          171                       # Number of mispredicted indirect branches.
system.cpu.dcache.demand_hits::.cpu.data     51142259                       # number of demand (read+write) hits
system.cpu.dcache.demand_hits::total         51142259                       # number of demand (read+write) hits
system.cpu.dcache.overall_hits::.cpu.data     51142731                       # number of overall hits
system.cpu.dcache.overall_hits::total        51142731                       # number of overall hits
system.cpu.dcache.demand_misses::.cpu.data       920507                       # number of demand (read+write) misses
system.cpu.dcache.demand_misses::total         920507                       # number of demand (read+write) misses
system.cpu.dcache.overall_misses::.cpu.data       928454                       # number of overall misses
system.cpu.dcache.overall_misses::total        928454                       # number of overall misses
system.cpu.dcache.demand_miss_latency::.cpu.data  42622829000                       # number of demand (read+write) miss cycles
system.cpu.dcache.demand_miss_latency::total  42622829000                       # number of demand (read+write) miss cycles
system.cpu.dcache.overall_miss_latency::.cpu.data  42622829000                       # number of overall miss cycles
system.cpu.dcache.overall_miss_latency::total  42622829000                       # number of overall miss cycles
system.cpu.dcache.demand_accesses::.cpu.data     52062766                       # number of demand (read+write) accesses
system.cpu.dcache.demand_accesses::total     52062766                       # number of demand (read+write) accesses
system.cpu.dcache.overall_accesses::.cpu.data     52071185                       # number of overall (read+write) accesses
system.cpu.dcache.overall_accesses::total     52071185                       # number of overall (read+write) accesses
system.cpu.dcache.demand_miss_rate::.cpu.data     0.017681                       # miss rate for demand accesses
system.cpu.dcache.demand_miss_rate::total     0.017681                       # miss rate for demand accesses
system.cpu.dcache.overall_miss_rate::.cpu.data     0.017830                       # miss rate for overall accesses
system.cpu.dcache.overall_miss_rate::total     0.017830                       # miss rate for overall accesses
system.cpu.dcache.demand_avg_miss_latency::.cpu.data 46303.644622                       # average overall miss latency
system.cpu.dcache.demand_avg_miss_latency::total 46303.644622                       # average overall miss latency
system.cpu.dcache.overall_avg_miss_latency::.cpu.data 45907.313663                       # average overall miss latency
system.cpu.dcache.overall_avg_miss_latency::total 45907.313663                       # average overall miss latency
system.cpu.dcache.blocked_cycles::no_mshrs        88682                       # number of cycles access was blocked
system.cpu.dcache.blocked_cycles::no_targets            0                       # number of cycles access was blocked
system.cpu.dcache.blocked::no_mshrs              3484                       # number of cycles access was blocked
system.cpu.dcache.blocked::no_targets               0                       # number of cycles access was blocked
system.cpu.dcache.avg_blocked_cycles::no_mshrs    25.454076                       # average number of cycles each access was blocked
system.cpu.dcache.avg_blocked_cycles::no_targets          nan                       # average number of cycles each access was blocked
system.cpu.dcache.writebacks::.writebacks       787164                       # number of writebacks
system.cpu.dcache.writebacks::total            787164                       # number of writebacks
system.cpu.dcache.demand_mshr_hits::.cpu.data        53264                       # number of demand (read+write) MSHR hits
system.cpu.dcache.demand_mshr_hits::total        53264                       # number of demand (read+write) MSHR hits
system.cpu.dcache.overall_mshr_hits::.cpu.data        53264                       # number of overall MSHR hits
system.cpu.dcache.overall_mshr_hits::total        53264                       # number of overall MSHR hits
system.cpu.dcache.demand_mshr_misses::.cpu.data       867243                       # number of demand (read+write) MSHR misses
system.cpu.dcache.demand_mshr_misses::total       867243                       # number of demand (read+write) MSHR misses
system.cpu.dcache.overall_mshr_misses::.cpu.data       875186                       # number of overall MSHR misses
system.cpu.dcache.overall_mshr_misses::total       875186                       # number of overall MSHR misses
system.cpu.dcache.demand_mshr_miss_latency::.cpu.data  39282982000                       # number of demand (read+write) MSHR miss cycles
system.cpu.dcache.demand_mshr_miss_latency::total  39282982000                       # number of demand (read+write) MSHR miss cycles
system.cpu.dcache.overall_mshr_miss_latency::.cpu.data  40071402999                       # number of overall MSHR miss cycles
system.cpu.dcache.overall_mshr_miss_latency::total  40071402999                       # number of overall MSHR miss cycles
system.cpu.dcache.demand_mshr_miss_rate::.cpu.data     0.016658                       # mshr miss rate for demand accesses
system.cpu.dcache.demand_mshr_miss_rate::total     0.016658                       # mshr miss rate for demand accesses
system.cpu.dcache.overall_mshr_miss_rate::.cpu.data     0.016807                       # mshr miss rate for overall accesses
system.cpu.dcache.overall_mshr_miss_rate::total     0.016807                       # mshr miss rate for overall accesses
system.cpu.dcache.demand_avg_mshr_miss_latency::.cpu.data 45296.395589                       # average overall mshr miss latency
system.cpu.dcache.demand_avg_mshr_miss_latency::total 45296.395589                       # average overall mshr miss latency
system.cpu.dcache.overall_avg_mshr_miss_latency::.cpu.data 45786.156313                       # average overall mshr miss latency
system.cpu.dcache.overall_avg_mshr_miss_latency::total 45786.156313                       # average overall mshr miss latency
system.cpu.dcache.replacements                 874674                       # number of replacements
system.cpu.dcache.ReadReq_hits::.cpu.data     40587435                       # number of ReadReq hits
system.cpu.dcache.ReadReq_hits::total        40587435                       # number of ReadReq hits
system.cpu.dcache.ReadReq_misses::.cpu.data       526249                       # number of ReadReq misses
system.cpu.dcache.ReadReq_misses::total        526249                       # number of ReadReq misses
system.cpu.dcache.ReadReq_miss_latency::.cpu.data  19633374000                       # number of ReadReq miss cycles
system.cpu.dcache.ReadReq_miss_latency::total  19633374000                       # number of ReadReq miss cycles
system.cpu.dcache.ReadReq_accesses::.cpu.data     41113684                       # number of ReadReq accesses(hits+misses)
system.cpu.dcache.ReadReq_accesses::total     41113684                       # number of ReadReq accesses(hits+misses)
system.cpu.dcache.ReadReq_miss_rate::.cpu.data     0.012800                       # miss rate for ReadReq accesses
system.cpu.dcache.ReadReq_miss_rate::total     0.012800                       # miss rate for ReadReq accesses
system.cpu.dcache.ReadReq_avg_miss_latency::.cpu.data 37308.145004                       # average ReadReq miss latency
system.cpu.dcache.ReadReq_avg_miss_latency::total 37308.145004                       # average ReadReq miss latency
system.cpu.dcache.ReadReq_mshr_hits::.cpu.data          241                       # number of ReadReq MSHR hits
system.cpu.dcache.ReadReq_mshr_hits::total          241                       # number of ReadReq MSHR hits
system.cpu.dcache.ReadReq_mshr_misses::.cpu.data       526008                       # number of ReadReq MSHR misses
system.cpu.dcache.ReadReq_mshr_misses::total       526008                       # number of ReadReq MSHR misses
system.cpu.dcache.ReadReq_mshr_miss_latency::.cpu.data  18573258000                       # number of ReadReq MSHR miss cycles
system.cpu.dcache.ReadReq_mshr_miss_latency::total  18573258000                       # number of ReadReq MSHR miss cycles
system.cpu.dcache.ReadReq_mshr_miss_rate::.cpu.data     0.012794                       # mshr miss rate for ReadReq accesses
system.cpu.dcache.ReadReq_mshr_miss_rate::total     0.012794                       # mshr miss rate for ReadReq accesses
system.cpu.dcache.ReadReq_avg_mshr_miss_latency::.cpu.data 35309.839394                       # average ReadReq mshr miss latency
system.cpu.dcache.ReadReq_avg_mshr_miss_latency::total 35309.839394                       # average ReadReq mshr miss latency
system.cpu.dcache.WriteReq_hits::.cpu.data     10554824                       # number of WriteReq hits
system.cpu.dcache.WriteReq_hits::total       10554824                       # number of WriteReq hits
system.cpu.dcache.WriteReq_misses::.cpu.data       394258                       # number of WriteReq misses
system.cpu.dcache.WriteReq_misses::total       394258                       # number of WriteReq misses
system.cpu.dcache.WriteReq_miss_latency::.cpu.data  22989455000                       # number of WriteReq miss cycles
system.cpu.dcache.WriteReq_miss_latency::total  22989455000                       # number of WriteReq miss cycles
system.cpu.dcache.WriteReq_accesses::.cpu.data     10949082                       # number of WriteReq accesses(hits+misses)
system.cpu.dcache.WriteReq_accesses::total     10949082                       # number of WriteReq accesses(hits+misses)
system.cpu.dcache.WriteReq_miss_rate::.cpu.data     0.036008                       # miss rate for WriteReq accesses
system.cpu.dcache.WriteReq_miss_rate::total     0.036008                       # miss rate for WriteReq accesses
system.cpu.dcache.WriteReq_avg_miss_latency::.cpu.data 58310.687418                       # average WriteReq miss latency
system.cpu.dcache.WriteReq_avg_miss_latency::total 58310.687418                       # average WriteReq miss latency
system.cpu.dcache.WriteReq_mshr_hits::.cpu.data        53023                       # number of WriteReq MSHR hits
system.cpu.dcache.WriteReq_mshr_hits::total        53023                       # number of WriteReq MSHR hits
system.cpu.dcache.WriteReq_mshr_misses::.cpu.data       341235                       # number of WriteReq MSHR misses
system.cpu.dcache.WriteReq_mshr_misses::total       341235                       # number of WriteReq MSHR misses
system.cpu.dcache.WriteReq_mshr_miss_latency::.cpu.data  20709724000                       # number of WriteReq MSHR miss cycles
system.cpu.dcache.WriteReq_mshr_miss_latency::total  20709724000                       # number of WriteReq MSHR miss cycles
system.cpu.dcache.WriteReq_mshr_miss_rate::.cpu.data     0.031166                       # mshr miss rate for WriteReq accesses
system.cpu.dcache.WriteReq_mshr_miss_rate::total     0.031166                       # mshr miss rate for WriteReq accesses
system.cpu.dcache.WriteReq_avg_mshr_miss_latency::.cpu.data 60690.503612                       # average WriteReq mshr miss latency
system.cpu.dcache.WriteReq_avg_mshr_miss_latency::total 60690.503612                       # average WriteReq mshr miss latency
system.cpu.dcache.SoftPFReq_hits::.cpu.data          472                       # number of SoftPFReq hits
system.cpu.dcache.SoftPFReq_hits::total           472                       # number of SoftPFReq hits
system.cpu.dcache.SoftPFReq_misses::.cpu.data         7947                       # number of SoftPFReq misses
system.cpu.dcache.SoftPFReq_misses::total         7947                       # number of SoftPFReq misses
system.cpu.dcache.SoftPFReq_accesses::.cpu.data         8419                       # number of SoftPFReq accesses(hits+misses)
system.cpu.dcache.SoftPFReq_accesses::total         8419                       # number of SoftPFReq accesses(hits+misses)
system.cpu.dcache.SoftPFReq_miss_rate::.cpu.data     0.943936                       # miss rate for SoftPFReq accesses
system.cpu.dcache.SoftPFReq_miss_rate::total     0.943936                       # miss rate for SoftPFReq accesses
system.cpu.dcache.SoftPFReq_mshr_misses::.cpu.data         7943                       # number of SoftPFReq MSHR misses
system.cpu.dcache.SoftPFReq_mshr_misses::total         7943                       # number of SoftPFReq MSHR misses
system.cpu.dcache.SoftPFReq_mshr_miss_latency::.cpu.data    788420999                       # number of SoftPFReq MSHR miss cycles
system.cpu.dcache.SoftPFReq_mshr_miss_latency::total    788420999                       # number of SoftPFReq MSHR miss cycles
system.cpu.dcache.SoftPFReq_mshr_miss_rate::.cpu.data     0.943461                       # mshr miss rate for SoftPFReq accesses
system.cpu.dcache.SoftPFReq_mshr_miss_rate::total     0.943461                       # mshr miss rate for SoftPFReq accesses
system.cpu.dcache.SoftPFReq_avg_mshr_miss_latency::.cpu.data 99259.851316                       # average SoftPFReq mshr miss latency
system.cpu.dcache.SoftPFReq_avg_mshr_miss_latency::total 99259.851316                       # average SoftPFReq mshr miss latency
system.cpu.dcache.LoadLockedReq_hits::.cpu.data           38                       # number of LoadLockedReq hits
system.cpu.dcache.LoadLockedReq_hits::total           38                       # number of LoadLockedReq hits
system.cpu.dcache.LoadLockedReq_accesses::.cpu.data           38                       # number of LoadLockedReq accesses(hits+misses)
system.cpu.dcache.LoadLockedReq_accesses::total           38                       # number of LoadLockedReq accesses(hits+misses)
system.cpu.dcache.StoreCondReq_hits::.cpu.data           38                       # number of StoreCondReq hits
system.cpu.dcache.StoreCondReq_hits::total           38                       # number of StoreCondReq hits
system.cpu.dcache.StoreCondReq_accesses::.cpu.data           38                       # number of StoreCondReq accesses(hits+misses)
system.cpu.dcache.StoreCondReq_accesses::total           38                       # number of StoreCondReq accesses(hits+misses)
system.cpu.dcache.power_state.pwrStateResidencyTicks::UNDEFINED 165435734000                       # Cumulative time (in ticks) in various power states
system.cpu.dcache.tags.tagsinuse           507.469041                       # Cycle average of tags in use
system.cpu.dcache.tags.total_refs            52017993                       # Total number of references to valid blocks.
system.cpu.dcache.tags.sampled_refs            875186                       # Sample count of references to valid blocks.
system.cpu.dcache.tags.avg_refs             59.436500                       # Average number of references to valid blocks.
system.cpu.dcache.tags.warmup_cycle            223000                       # Cycle when the warmup percentage was hit.
system.cpu.dcache.tags.occ_blocks::.cpu.data   507.469041                       # Average occupied blocks per requestor
system.cpu.dcache.tags.occ_percent::.cpu.data     0.991150                       # Average percentage of cache occupancy
system.cpu.dcache.tags.occ_percent::total     0.991150                       # Average percentage of cache occupancy
system.cpu.dcache.tags.occ_task_id_blocks::1024          512                       # Occupied blocks per task id
system.cpu.dcache.tags.age_task_id_blocks_1024::0           32                       # Occupied blocks per task id
system.cpu.dcache.tags.age_task_id_blocks_1024::1          229                       # Occupied blocks per task id
system.cpu.dcache.tags.age_task_id_blocks_1024::2          250                       # Occupied blocks per task id
system.cpu.dcache.tags.age_task_id_blocks_1024::3            1                       # Occupied blocks per task id
system.cpu.dcache.tags.occ_task_id_percent::1024            1                       # Percentage of cache occupancy per task id
system.cpu.dcache.tags.tag_accesses         105017708                       # Number of tag accesses
system.cpu.dcache.tags.data_accesses        105017708                       # Number of data accesses
system.cpu.dcache.tags.power_state.pwrStateResidencyTicks::UNDEFINED 165435734000                       # Cumulative time (in ticks) in various power states
system.cpu.dtb.instHits                             0                       # ITB inst hits
system.cpu.dtb.instMisses                           0                       # ITB inst misses
system.cpu.dtb.readHits                             0                       # DTB read hits
system.cpu.dtb.readMisses                           0                       # DTB read misses
system.cpu.dtb.writeHits                            0                       # DTB write hits
system.cpu.dtb.writeMisses                          0                       # DTB write misses
system.cpu.dtb.inserts                              0                       # Number of times an entry is inserted into the TLB
system.cpu.dtb.flushTlb                             0                       # Number of times complete TLB was flushed
system.cpu.dtb.flushTlbMva                          0                       # Number of times TLB was flushed by MVA
system.cpu.dtb.flushTlbMvaAsid                      0                       # Number of times TLB was flushed by MVA & ASID
system.cpu.dtb.flushTlbAsid                         0                       # Number of times TLB was flushed by ASID
system.cpu.dtb.flushedEntries                       0                       # Number of entries that have been flushed from TLB
system.cpu.dtb.alignFaults                          0                       # Number of TLB faults due to alignment restrictions
system.cpu.dtb.prefetchFaults                       0                       # Number of TLB faults due to prefetch
system.cpu.dtb.domainFaults                         0                       # Number of TLB faults due to domain restrictions
system.cpu.dtb.permsFaults                          0                       # Number of TLB faults due to permissions restrictions
system.cpu.dtb.readAccesses                         0                       # DTB read accesses
system.cpu.dtb.writeAccesses                        0                       # DTB write accesses
system.cpu.dtb.instAccesses                         0                       # ITB inst accesses
system.cpu.dtb.hits                                 0                       # Total TLB (inst and data) hits
system.cpu.dtb.misses                               0                       # Total TLB (inst and data) misses
system.cpu.dtb.accesses                             0                       # Total TLB (inst and data) accesses
system.cpu.dtb.stage2_mmu.stage2_tlb.instHits            0                       # ITB inst hits
system.cpu.dtb.stage2_mmu.stage2_tlb.instMisses            0                       # ITB inst misses
system.cpu.dtb.stage2_mmu.stage2_tlb.readHits            0                       # DTB read hits
system.cpu.dtb.stage2_mmu.stage2_tlb.readMisses            0                       # DTB read misses
system.cpu.dtb.stage2_mmu.stage2_tlb.writeHits            0                       # DTB write hits
system.cpu.dtb.stage2_mmu.stage2_tlb.writeMisses            0                       # DTB write misses
system.cpu.dtb.stage2_mmu.stage2_tlb.inserts            0                       # Number of times an entry is inserted into the TLB
system.cpu.dtb.stage2_mmu.stage2_tlb.flushTlb            0                       # Number of times complete TLB was flushed
system.cpu.dtb.stage2_mmu.stage2_tlb.flushTlbMva            0                       # Number of times TLB was flushed by MVA
system.cpu.dtb.stage2_mmu.stage2_tlb.flushTlbMvaAsid            0                       # Number of times TLB was flushed by MVA & ASID
system.cpu.dtb.stage2_mmu.stage2_tlb.flushTlbAsid            0                       # Number of times TLB was flushed by ASID
system.cpu.dtb.stage2_mmu.stage2_tlb.flushedEntries            0                       # Number of entries that have been flushed from TLB
system.cpu.dtb.stage2_mmu.stage2_tlb.alignFaults            0                       # Number of TLB faults due to alignment restrictions
system.cpu.dtb.stage2_mmu.stage2_tlb.prefetchFaults            0                       # Number of TLB faults due to prefetch
system.cpu.dtb.stage2_mmu.stage2_tlb.domainFaults            0                       # Number of TLB faults due to domain restrictions
system.cpu.dtb.stage2_mmu.stage2_tlb.permsFaults            0                       # Number of TLB faults due to permissions restrictions
system.cpu.dtb.stage2_mmu.stage2_tlb.readAccesses            0                       # DTB read accesses
system.cpu.dtb.stage2_mmu.stage2_tlb.writeAccesses            0                       # DTB write accesses
system.cpu.dtb.stage2_mmu.stage2_tlb.instAccesses            0                       # ITB inst accesses
system.cpu.dtb.stage2_mmu.stage2_tlb.hits            0                       # Total TLB (inst and data) hits
system.cpu.dtb.stage2_mmu.stage2_tlb.misses            0                       # Total TLB (inst and data) misses
system.cpu.dtb.stage2_mmu.stage2_tlb.accesses            0                       # Total TLB (inst and data) accesses
system.cpu.dtb.stage2_mmu.stage2_tlb.walker.walks            0                       # Table walker walks requested
system.cpu.dtb.stage2_mmu.stage2_tlb.walker.requestOrigin_Requested::Data            0                       # Table walker requests started/completed, data/inst
system.cpu.dtb.stage2_mmu.stage2_tlb.walker.requestOrigin_Requested::Inst            0                       # Table walker requests started/completed, data/inst
system.cpu.dtb.stage2_mmu.stage2_tlb.walker.requestOrigin_Requested::total            0                       # Table walker requests started/completed, data/inst
system.cpu.dtb.stage2_mmu.stage2_tlb.walker.requestOrigin_Completed::Data            0                       # Table walker requests started/completed, data/inst
system.cpu.dtb.stage2_mmu.stage2_tlb.walker.requestOrigin_Completed::Inst            0                       # Table walker requests started/completed, data/inst
system.cpu.dtb.stage2_mmu.stage2_tlb.walker.requestOrigin_Completed::total            0                       # Table walker requests started/completed, data/inst
system.cpu.dtb.stage2_mmu.stage2_tlb.walker.requestOrigin::total            0                       # Table walker requests started/completed, data/inst
system.cpu.dtb.stage2_mmu.stage2_tlb.walker.power_state.pwrStateResidencyTicks::UNDEFINED 165435734000                       # Cumulative time (in ticks) in various power states
system.cpu.dtb.walker.walks                         0                       # Table walker walks requested
system.cpu.dtb.walker.requestOrigin_Requested::Data            0                       # Table walker requests started/completed, data/inst
system.cpu.dtb.walker.requestOrigin_Requested::Inst            0                       # Table walker requests started/completed, data/inst
system.cpu.dtb.walker.requestOrigin_Requested::total            0                       # Table walker requests started/completed, data/inst
system.cpu.dtb.walker.requestOrigin_Completed::Data            0                       # Table walker requests started/completed, data/inst
system.cpu.dtb.walker.requestOrigin_Completed::Inst            0                       # Table walker requests started/completed, data/inst
system.cpu.dtb.walker.requestOrigin_Completed::total            0                       # Table walker requests started/completed, data/inst
system.cpu.dtb.walker.requestOrigin::total            0                       # Table walker requests started/completed, data/inst
system.cpu.dtb.walker.power_state.pwrStateResidencyTicks::UNDEFINED 165435734000                       # Cumulative time (in ticks) in various power states
system.cpu.fetch2.intInstructions            42685856                       # Number of integer instructions successfully decoded
system.cpu.fetch2.fpInstructions                    0                       # Number of floating point instructions successfully decoded
system.cpu.fetch2.vecInstructions                   0                       # Number of SIMD instructions successfully decoded
system.cpu.fetch2.loadInstructions           43475094                       # Number of memory load instructions successfully decoded
system.cpu.fetch2.storeInstructions          11024933                       # Number of memory store instructions successfully decoded
system.cpu.fetch2.amoInstructions                   0                       # Number of memory atomic instructions successfully decoded
system.cpu.icache.demand_hits::.cpu.inst     10278121                       # number of demand (read+write) hits
system.cpu.icache.demand_hits::total         10278121                       # number of demand (read+write) hits
system.cpu.icache.overall_hits::.cpu.inst     10278121                       # number of overall hits
system.cpu.icache.overall_hits::total        10278121                       # number of overall hits
system.cpu.icache.demand_misses::.cpu.inst          773                       # number of demand (read+write) misses
system.cpu.icache.demand_misses::total            773                       # number of demand (read+write) misses
system.cpu.icache.overall_misses::.cpu.inst          773                       # number of overall misses
system.cpu.icache.overall_misses::total           773                       # number of overall misses
system.cpu.icache.demand_miss_latency::.cpu.inst     73850000                       # number of demand (read+write) miss cycles
system.cpu.icache.demand_miss_latency::total     73850000                       # number of demand (read+write) miss cycles
system.cpu.icache.overall_miss_latency::.cpu.inst     73850000                       # number of overall miss cycles
system.cpu.icache.overall_miss_latency::total     73850000                       # number of overall miss cycles
system.cpu.icache.demand_accesses::.cpu.inst     10278894                       # number of demand (read+write) accesses
system.cpu.icache.demand_accesses::total     10278894                       # number of demand (read+write) accesses
system.cpu.icache.overall_accesses::.cpu.inst     10278894                       # number of overall (read+write) accesses
system.cpu.icache.overall_accesses::total     10278894                       # number of overall (read+write) accesses
system.cpu.icache.demand_miss_rate::.cpu.inst     0.000075                       # miss rate for demand accesses
system.cpu.icache.demand_miss_rate::total     0.000075                       # miss rate for demand accesses
system.cpu.icache.overall_miss_rate::.cpu.inst     0.000075                       # miss rate for overall accesses
system.cpu.icache.overall_miss_rate::total     0.000075                       # miss rate for overall accesses
system.cpu.icache.demand_avg_miss_latency::.cpu.inst 95536.869340                       # average overall miss latency
system.cpu.icache.demand_avg_miss_latency::total 95536.869340                       # average overall miss latency
system.cpu.icache.overall_avg_miss_latency::.cpu.inst 95536.869340                       # average overall miss latency
system.cpu.icache.overall_avg_miss_latency::total 95536.869340                       # average overall miss latency
system.cpu.icache.blocked_cycles::no_mshrs            0                       # number of cycles access was blocked
system.cpu.icache.blocked_cycles::no_targets            0                       # number of cycles access was blocked
system.cpu.icache.blocked::no_mshrs                 0                       # number of cycles access was blocked
system.cpu.icache.blocked::no_targets               0                       # number of cycles access was blocked
system.cpu.icache.avg_blocked_cycles::no_mshrs          nan                       # average number of cycles each access was blocked
system.cpu.icache.avg_blocked_cycles::no_targets          nan                       # average number of cycles each access was blocked
system.cpu.icache.writebacks::.writebacks          333                       # number of writebacks
system.cpu.icache.writebacks::total               333                       # number of writebacks
system.cpu.icache.demand_mshr_misses::.cpu.inst          773                       # number of demand (read+write) MSHR misses
system.cpu.icache.demand_mshr_misses::total          773                       # number of demand (read+write) MSHR misses
system.cpu.icache.overall_mshr_misses::.cpu.inst          773                       # number of overall MSHR misses
system.cpu.icache.overall_mshr_misses::total          773                       # number of overall MSHR misses
system.cpu.icache.demand_mshr_miss_latency::.cpu.inst     72304000                       # number of demand (read+write) MSHR miss cycles
system.cpu.icache.demand_mshr_miss_latency::total     72304000                       # number of demand (read+write) MSHR miss cycles
system.cpu.icache.overall_mshr_miss_latency::.cpu.inst     72304000                       # number of overall MSHR miss cycles
system.cpu.icache.overall_mshr_miss_latency::total     72304000                       # number of overall MSHR miss cycles
system.cpu.icache.demand_mshr_miss_rate::.cpu.inst     0.000075                       # mshr miss rate for demand accesses
system.cpu.icache.demand_mshr_miss_rate::total     0.000075                       # mshr miss rate for demand accesses
system.cpu.icache.overall_mshr_miss_rate::.cpu.inst     0.000075                       # mshr miss rate for overall accesses
system.cpu.icache.overall_mshr_miss_rate::total     0.000075                       # mshr miss rate for overall accesses
system.cpu.icache.demand_avg_mshr_miss_latency::.cpu.inst 93536.869340                       # average overall mshr miss latency
system.cpu.icache.demand_avg_mshr_miss_latency::total 93536.869340                       # average overall mshr miss latency
system.cpu.icache.overall_avg_mshr_miss_latency::.cpu.inst 93536.869340                       # average overall mshr miss latency
system.cpu.icache.overall_avg_mshr_miss_latency::total 93536.869340                       # average overall mshr miss latency
system.cpu.icache.replacements                    333                       # number of replacements
system.cpu.icache.ReadReq_hits::.cpu.inst     10278121                       # number of ReadReq hits
system.cpu.icache.ReadReq_hits::total        10278121                       # number of ReadReq hits
system.cpu.icache.ReadReq_misses::.cpu.inst          773                       # number of ReadReq misses
system.cpu.icache.ReadReq_misses::total           773                       # number of ReadReq misses
system.cpu.icache.ReadReq_miss_latency::.cpu.inst     73850000                       # number of ReadReq miss cycles
system.cpu.icache.ReadReq_miss_latency::total     73850000                       # number of ReadReq miss cycles
system.cpu.icache.ReadReq_accesses::.cpu.inst     10278894                       # number of ReadReq accesses(hits+misses)
system.cpu.icache.ReadReq_accesses::total     10278894                       # number of ReadReq accesses(hits+misses)
system.cpu.icache.ReadReq_miss_rate::.cpu.inst     0.000075                       # miss rate for ReadReq accesses
system.cpu.icache.ReadReq_miss_rate::total     0.000075                       # miss rate for ReadReq accesses
system.cpu.icache.ReadReq_avg_miss_latency::.cpu.inst 95536.869340                       # average ReadReq miss latency
system.cpu.icache.ReadReq_avg_miss_latency::total 95536.869340                       # average ReadReq miss latency
system.cpu.icache.ReadReq_mshr_misses::.cpu.inst          773                       # number of ReadReq MSHR misses
system.cpu.icache.ReadReq_mshr_misses::total          773                       # number of ReadReq MSHR misses
system.cpu.icache.ReadReq_mshr_miss_latency::.cpu.inst     72304000                       # number of ReadReq MSHR miss cycles
system.cpu.icache.ReadReq_mshr_miss_latency::total     72304000                       # number of ReadReq MSHR miss cycles
system.cpu.icache.ReadReq_mshr_miss_rate::.cpu.inst     0.000075                       # mshr miss rate for ReadReq accesses
system.cpu.icache.ReadReq_mshr_miss_rate::total     0.000075                       # mshr miss rate for ReadReq accesses
system.cpu.icache.ReadReq_avg_mshr_miss_latency::.cpu.inst 93536.869340                       # average ReadReq mshr miss latency
system.cpu.icache.ReadReq_avg_mshr_miss_latency::total 93536.869340                       # average ReadReq mshr miss latency
system.cpu.icache.power_state.pwrStateResidencyTicks::UNDEFINED 165435734000                       # Cumulative time (in ticks) in various power states
system.cpu.icache.tags.tagsinuse           357.339929                       # Cycle average of tags in use
system.cpu.icache.tags.total_refs            10278894                       # Total number of references to valid blocks.
system.cpu.icache.tags.sampled_refs               773                       # Sample count of references to valid blocks.
system.cpu.icache.tags.avg_refs          13297.404916                       # Average number of references to valid blocks.
system.cpu.icache.tags.warmup_cycle            108000                       # Cycle when the warmup percentage was hit.
system.cpu.icache.tags.occ_blocks::.cpu.inst   357.339929                       # Average occupied blocks per requestor
system.cpu.icache.tags.occ_percent::.cpu.inst     0.697930                       # Average percentage of cache occupancy
system.cpu.icache.tags.occ_percent::total     0.697930                       # Average percentage of cache occupancy
system.cpu.icache.tags.occ_task_id_blocks::1024          440                       # Occupied blocks per task id
system.cpu.icache.tags.age_task_id_blocks_1024::4          440                       # Occupied blocks per task id
system.cpu.icache.tags.occ_task_id_percent::1024     0.859375                       # Percentage of cache occupancy per task id
system.cpu.icache.tags.tag_accesses          20558561                       # Number of tag accesses
system.cpu.icache.tags.data_accesses         20558561                       # Number of data accesses
system.cpu.icache.tags.power_state.pwrStateResidencyTicks::UNDEFINED 165435734000                       # Cumulative time (in ticks) in various power states
system.cpu.itb.instHits                             0                       # ITB inst hits
system.cpu.itb.instMisses                           0                       # ITB inst misses
system.cpu.itb.readHits                             0                       # DTB read hits
system.cpu.itb.readMisses                           0                       # DTB read misses
system.cpu.itb.writeHits                            0                       # DTB write hits
system.cpu.itb.writeMisses                          0                       # DTB write misses
system.cpu.itb.inserts                              0                       # Number of times an entry is inserted into the TLB
system.cpu.itb.flushTlb                             0                       # Number of times complete TLB was flushed
system.cpu.itb.flushTlbMva                          0                       # Number of times TLB was flushed by MVA
system.cpu.itb.flushTlbMvaAsid                      0                       # Number of times TLB was flushed by MVA & ASID
system.cpu.itb.flushTlbAsid                         0                       # Number of times TLB was flushed by ASID
system.cpu.itb.flushedEntries                       0                       # Number of entries that have been flushed from TLB
system.cpu.itb.alignFaults                          0                       # Number of TLB faults due to alignment restrictions
system.cpu.itb.prefetchFaults                       0                       # Number of TLB faults due to prefetch
system.cpu.itb.domainFaults                         0                       # Number of TLB faults due to domain restrictions
system.cpu.itb.permsFaults                          0                       # Number of TLB faults due to permissions restrictions
system.cpu.itb.readAccesses                         0                       # DTB read accesses
system.cpu.itb.writeAccesses                        0                       # DTB write accesses
system.cpu.itb.instAccesses                         0                       # ITB inst accesses
system.cpu.itb.hits                                 0                       # Total TLB (inst and data) hits
system.cpu.itb.misses                               0                       # Total TLB (inst and data) misses
system.cpu.itb.accesses                             0                       # Total TLB (inst and data) accesses
system.cpu.itb.stage2_mmu.stage2_tlb.instHits            0                       # ITB inst hits
system.cpu.itb.stage2_mmu.stage2_tlb.instMisses            0                       # ITB inst misses
system.cpu.itb.stage2_mmu.stage2_tlb.readHits            0                       # DTB read hits
system.cpu.itb.stage2_mmu.stage2_tlb.readMisses            0                       # DTB read misses
system.cpu.itb.stage2_mmu.stage2_tlb.writeHits            0                       # DTB write hits
system.cpu.itb.stage2_mmu.stage2_tlb.writeMisses            0                       # DTB write misses
system.cpu.itb.stage2_mmu.stage2_tlb.inserts            0                       # Number of times an entry is inserted into the TLB
system.cpu.itb.stage2_mmu.stage2_tlb.flushTlb            0                       # Number of times complete TLB was flushed
system.cpu.itb.stage2_mmu.stage2_tlb.flushTlbMva            0                       # Number of times TLB was flushed by MVA
system.cpu.itb.stage2_mmu.stage2_tlb.flushTlbMvaAsid            0                       # Number of times TLB was flushed by MVA & ASID
system.cpu.itb.stage2_mmu.stage2_tlb.flushTlbAsid            0                       # Number of times TLB was flushed by ASID
system.cpu.itb.stage2_mmu.stage2_tlb.flushedEntries            0                       # Number of entries that have been flushed from TLB
system.cpu.itb.stage2_mmu.stage2_tlb.alignFaults            0                       # Number of TLB faults due to alignment restrictions
system.cpu.itb.stage2_mmu.stage2_tlb.prefetchFaults            0                       # Number of TLB faults due to prefetch
system.cpu.itb.stage2_mmu.stage2_tlb.domainFaults            0                       # Number of TLB faults due to domain restrictions
system.cpu.itb.stage2_mmu.stage2_tlb.permsFaults            0                       # Number of TLB faults due to permissions restrictions
system.cpu.itb.stage2_mmu.stage2_tlb.readAccesses            0                       # DTB read accesses
system.cpu.itb.stage2_mmu.stage2_tlb.writeAccesses            0                       # DTB write accesses
system.cpu.itb.stage2_mmu.stage2_tlb.instAccesses            0                       # ITB inst accesses
system.cpu.itb.stage2_mmu.stage2_tlb.hits            0                       # Total TLB (inst and data) hits
system.cpu.itb.stage2_mmu.stage2_tlb.misses            0                       # Total TLB (inst and data) misses
system.cpu.itb.stage2_mmu.stage2_tlb.accesses            0                       # Total TLB (inst and data) accesses
system.cpu.itb.stage2_mmu.stage2_tlb.walker.walks            0                       # Table walker walks requested
system.cpu.itb.stage2_mmu.stage2_tlb.walker.requestOrigin_Requested::Data            0                       # Table walker requests started/completed, data/inst
system.cpu.itb.stage2_mmu.stage2_tlb.walker.requestOrigin_Requested::Inst            0                       # Table walker requests started/completed, data/inst
system.cpu.itb.stage2_mmu.stage2_tlb.walker.requestOrigin_Requested::total            0                       # Table walker requests started/completed, data/inst
system.cpu.itb.stage2_mmu.stage2_tlb.walker.requestOrigin_Completed::Data            0                       # Table walker requests started/completed, data/inst
system.cpu.itb.stage2_mmu.stage2_tlb.walker.requestOrigin_Completed::Inst            0                       # Table walker requests started/completed, data/inst
system.cpu.itb.stage2_mmu.stage2_tlb.walker.requestOrigin_Completed::total            0                       # Table walker requests started/completed, data/inst
system.cpu.itb.stage2_mmu.stage2_tlb.walker.requestOrigin::total            0                       # Table walker requests started/completed, data/inst
system.cpu.itb.stage2_mmu.stage2_tlb.walker.power_state.pwrStateResidencyTicks::UNDEFINED 165435734000                       # Cumulative time (in ticks) in various power states
system.cpu.itb.walker.walks                         0                       # Table walker walks requested
system.cpu.itb.walker.requestOrigin_Requested::Data            0                       # Table walker requests started/completed, data/inst
system.cpu.itb.walker.requestOrigin_Requested::Inst            0                       # Table walker requests started/completed, data/inst
system.cpu.itb.walker.requestOrigin_Requested::total            0                       # Table walker requests started/completed, data/inst
system.cpu.itb.walker.requestOrigin_Completed::Data            0                       # Table walker requests started/completed, data/inst
system.cpu.itb.walker.requestOrigin_Completed::Inst            0                       # Table walker requests started/completed, data/inst
system.cpu.itb.walker.requestOrigin_Completed::total            0                       # Table walker requests started/completed, data/inst
system.cpu.itb.walker.requestOrigin::total            0                       # Table walker requests started/completed, data/inst
system.cpu.itb.walker.power_state.pwrStateResidencyTicks::UNDEFINED 165435734000                       # Cumulative time (in ticks) in various power states
system.cpu.power_state.pwrStateResidencyTicks::ON 165435734000                       # Cumulative time (in ticks) in various power states
system.cpu.thread0.numInsts                 100000001                       # Number of Instructions committed
system.cpu.thread0.numOps                   100196356                       # Number of Ops committed
system.cpu.thread0.numMemRefs                       0                       # Number of Memory References
system.cpu_clk_domain.clock                      1000                       # Clock period in ticks
system.cpu_voltage_domain.voltage                   1                       # Voltage in Volts
system.l2.demand_hits::.cpu.inst                  102                       # number of demand (read+write) hits
system.l2.demand_hits::.cpu.data               648560                       # number of demand (read+write) hits
system.l2.demand_hits::total                   648662                       # number of demand (read+write) hits
system.l2.overall_hits::.cpu.inst                 102                       # number of overall hits
system.l2.overall_hits::.cpu.data              648560                       # number of overall hits
system.l2.overall_hits::total                  648662                       # number of overall hits
system.l2.demand_misses::.cpu.inst                671                       # number of demand (read+write) misses
system.l2.demand_misses::.cpu.data             226626                       # number of demand (read+write) misses
system.l2.demand_misses::total                 227297                       # number of demand (read+write) misses
system.l2.overall_misses::.cpu.inst               671                       # number of overall misses
system.l2.overall_misses::.cpu.data            226626                       # number of overall misses
system.l2.overall_misses::total                227297                       # number of overall misses
system.l2.demand_miss_latency::.cpu.inst     67803000                       # number of demand (read+write) miss cycles
system.l2.demand_miss_latency::.cpu.data  23800133000                       # number of demand (read+write) miss cycles
system.l2.demand_miss_latency::total      23867936000                       # number of demand (read+write) miss cycles
system.l2.overall_miss_latency::.cpu.inst     67803000                       # number of overall miss cycles
system.l2.overall_miss_latency::.cpu.data  23800133000                       # number of overall miss cycles
system.l2.overall_miss_latency::total     23867936000                       # number of overall miss cycles
system.l2.demand_accesses::.cpu.inst              773                       # number of demand (read+write) accesses
system.l2.demand_accesses::.cpu.data           875186                       # number of demand (read+write) accesses
system.l2.demand_accesses::total               875959                       # number of demand (read+write) accesses
system.l2.overall_accesses::.cpu.inst             773                       # number of overall (read+write) accesses
system.l2.overall_accesses::.cpu.data          875186                       # number of overall (read+write) accesses
system.l2.overall_accesses::total              875959                       # number of overall (read+write) accesses
system.l2.demand_miss_rate::.cpu.inst        0.868047                       # miss rate for demand accesses
system.l2.demand_miss_rate::.cpu.data        0.258946                       # miss rate for demand accesses
system.l2.demand_miss_rate::total            0.259484                       # miss rate for demand accesses
system.l2.overall_miss_rate::.cpu.inst       0.868047                       # miss rate for overall accesses
system.l2.overall_miss_rate::.cpu.data       0.258946                       # miss rate for overall accesses
system.l2.overall_miss_rate::total           0.259484                       # miss rate for overall accesses
system.l2.demand_avg_miss_latency::.cpu.inst 101047.690015                       # average overall miss latency
system.l2.demand_avg_miss_latency::.cpu.data 105019.428486                       # average overall miss latency
system.l2.demand_avg_miss_latency::total 105007.703577                       # average overall miss latency
system.l2.overall_avg_miss_latency::.cpu.inst 101047.690015                       # average overall miss latency
system.l2.overall_avg_miss_latency::.cpu.data 105019.428486                       # average overall miss latency
system.l2.overall_avg_miss_latency::total 105007.703577                       # average overall miss latency
system.l2.blocked_cycles::no_mshrs                  0                       # number of cycles access was blocked
system.l2.blocked_cycles::no_targets                0                       # number of cycles access was blocked
system.l2.blocked::no_mshrs                         0                       # number of cycles access was blocked
system.l2.blocked::no_targets                       0                       # number of cycles access was blocked
system.l2.avg_blocked_cycles::no_mshrs            nan                       # average number of cycles each access was blocked
system.l2.avg_blocked_cycles::no_targets          nan                       # average number of cycles each access was blocked
system.l2.writebacks::.writebacks              140631                       # number of writebacks
system.l2.writebacks::total                    140631                       # number of writebacks
system.l2.demand_mshr_hits::.cpu.data               6                       # number of demand (read+write) MSHR hits
system.l2.demand_mshr_hits::total                   6                       # number of demand (read+write) MSHR hits
system.l2.overall_mshr_hits::.cpu.data              6                       # number of overall MSHR hits
system.l2.overall_mshr_hits::total                  6                       # number of overall MSHR hits
system.l2.demand_mshr_misses::.cpu.inst           671                       # number of demand (read+write) MSHR misses
system.l2.demand_mshr_misses::.cpu.data        226620                       # number of demand (read+write) MSHR misses
system.l2.demand_mshr_misses::total            227291                       # number of demand (read+write) MSHR misses
system.l2.overall_mshr_misses::.cpu.inst          671                       # number of overall MSHR misses
system.l2.overall_mshr_misses::.cpu.data       226620                       # number of overall MSHR misses
system.l2.overall_mshr_misses::total           227291                       # number of overall MSHR misses
system.l2.demand_mshr_miss_latency::.cpu.inst     54383000                       # number of demand (read+write) MSHR miss cycles
system.l2.demand_mshr_miss_latency::.cpu.data  19267273000                       # number of demand (read+write) MSHR miss cycles
system.l2.demand_mshr_miss_latency::total  19321656000                       # number of demand (read+write) MSHR miss cycles
system.l2.overall_mshr_miss_latency::.cpu.inst     54383000                       # number of overall MSHR miss cycles
system.l2.overall_mshr_miss_latency::.cpu.data  19267273000                       # number of overall MSHR miss cycles
system.l2.overall_mshr_miss_latency::total  19321656000                       # number of overall MSHR miss cycles
system.l2.demand_mshr_miss_rate::.cpu.inst     0.868047                       # mshr miss rate for demand accesses
system.l2.demand_mshr_miss_rate::.cpu.data     0.258939                       # mshr miss rate for demand accesses
system.l2.demand_mshr_miss_rate::total       0.259477                       # mshr miss rate for demand accesses
system.l2.overall_mshr_miss_rate::.cpu.inst     0.868047                       # mshr miss rate for overall accesses
system.l2.overall_mshr_miss_rate::.cpu.data     0.258939                       # mshr miss rate for overall accesses
system.l2.overall_mshr_miss_rate::total      0.259477                       # mshr miss rate for overall accesses
system.l2.demand_avg_mshr_miss_latency::.cpu.inst 81047.690015                       # average overall mshr miss latency
system.l2.demand_avg_mshr_miss_latency::.cpu.data 85020.179155                       # average overall mshr miss latency
system.l2.demand_avg_mshr_miss_latency::total 85008.451720                       # average overall mshr miss latency
system.l2.overall_avg_mshr_miss_latency::.cpu.inst 81047.690015                       # average overall mshr miss latency
system.l2.overall_avg_mshr_miss_latency::.cpu.data 85020.179155                       # average overall mshr miss latency
system.l2.overall_avg_mshr_miss_latency::total 85008.451720                       # average overall mshr miss latency
system.l2.replacements                         211087                       # number of replacements
system.l2.WritebackDirty_hits::.writebacks       787164                       # number of WritebackDirty hits
system.l2.WritebackDirty_hits::total           787164                       # number of WritebackDirty hits
system.l2.WritebackDirty_accesses::.writebacks       787164                       # number of WritebackDirty accesses(hits+misses)
system.l2.WritebackDirty_accesses::total       787164                       # number of WritebackDirty accesses(hits+misses)
system.l2.WritebackClean_hits::.writebacks          324                       # number of WritebackClean hits
system.l2.WritebackClean_hits::total              324                       # number of WritebackClean hits
system.l2.WritebackClean_accesses::.writebacks          324                       # number of WritebackClean accesses(hits+misses)
system.l2.WritebackClean_accesses::total          324                       # number of WritebackClean accesses(hits+misses)
system.l2.ReadExReq_hits::.cpu.data            196100                       # number of ReadExReq hits
system.l2.ReadExReq_hits::total                196100                       # number of ReadExReq hits
system.l2.ReadExReq_misses::.cpu.data          145135                       # number of ReadExReq misses
system.l2.ReadExReq_misses::total              145135                       # number of ReadExReq misses
system.l2.ReadExReq_miss_latency::.cpu.data  15553762000                       # number of ReadExReq miss cycles
system.l2.ReadExReq_miss_latency::total   15553762000                       # number of ReadExReq miss cycles
system.l2.ReadExReq_accesses::.cpu.data        341235                       # number of ReadExReq accesses(hits+misses)
system.l2.ReadExReq_accesses::total            341235                       # number of ReadExReq accesses(hits+misses)
system.l2.ReadExReq_miss_rate::.cpu.data     0.425323                       # miss rate for ReadExReq accesses
system.l2.ReadExReq_miss_rate::total         0.425323                       # miss rate for ReadExReq accesses
system.l2.ReadExReq_avg_miss_latency::.cpu.data 107167.547456                       # average ReadExReq miss latency
system.l2.ReadExReq_avg_miss_latency::total 107167.547456                       # average ReadExReq miss latency
system.l2.ReadExReq_mshr_misses::.cpu.data       145135                       # number of ReadExReq MSHR misses
system.l2.ReadExReq_mshr_misses::total         145135                       # number of ReadExReq MSHR misses
system.l2.ReadExReq_mshr_miss_latency::.cpu.data  12651062000                       # number of ReadExReq MSHR miss cycles
system.l2.ReadExReq_mshr_miss_latency::total  12651062000                       # number of ReadExReq MSHR miss cycles
system.l2.ReadExReq_mshr_miss_rate::.cpu.data     0.425323                       # mshr miss rate for ReadExReq accesses
system.l2.ReadExReq_mshr_miss_rate::total     0.425323                       # mshr miss rate for ReadExReq accesses
system.l2.ReadExReq_avg_mshr_miss_latency::.cpu.data 87167.547456                       # average ReadExReq mshr miss latency
system.l2.ReadExReq_avg_mshr_miss_latency::total 87167.547456                       # average ReadExReq mshr miss latency
system.l2.ReadCleanReq_hits::.cpu.inst            102                       # number of ReadCleanReq hits
system.l2.ReadCleanReq_hits::total                102                       # number of ReadCleanReq hits
system.l2.ReadCleanReq_misses::.cpu.inst          671                       # number of ReadCleanReq misses
system.l2.ReadCleanReq_misses::total              671                       # number of ReadCleanReq misses
system.l2.ReadCleanReq_miss_latency::.cpu.inst     67803000                       # number of ReadCleanReq miss cycles
system.l2.ReadCleanReq_miss_latency::total     67803000                       # number of ReadCleanReq miss cycles
system.l2.ReadCleanReq_accesses::.cpu.inst          773                       # number of ReadCleanReq accesses(hits+misses)
system.l2.ReadCleanReq_accesses::total            773                       # number of ReadCleanReq accesses(hits+misses)
system.l2.ReadCleanReq_miss_rate::.cpu.inst     0.868047                       # miss rate for ReadCleanReq accesses
system.l2.ReadCleanReq_miss_rate::total      0.868047                       # miss rate for ReadCleanReq accesses
system.l2.ReadCleanReq_avg_miss_latency::.cpu.inst 101047.690015                       # average ReadCleanReq miss latency
system.l2.ReadCleanReq_avg_miss_latency::total 101047.690015                       # average ReadCleanReq miss latency
system.l2.ReadCleanReq_mshr_misses::.cpu.inst          671                       # number of ReadCleanReq MSHR misses
system.l2.ReadCleanReq_mshr_misses::total          671                       # number of ReadCleanReq MSHR misses
system.l2.ReadCleanReq_mshr_miss_latency::.cpu.inst     54383000                       # number of ReadCleanReq MSHR miss cycles
system.l2.ReadCleanReq_mshr_miss_latency::total     54383000                       # number of ReadCleanReq MSHR miss cycles
system.l2.ReadCleanReq_mshr_miss_rate::.cpu.inst     0.868047                       # mshr miss rate for ReadCleanReq accesses
system.l2.ReadCleanReq_mshr_miss_rate::total     0.868047                       # mshr miss rate for ReadCleanReq accesses
system.l2.ReadCleanReq_avg_mshr_miss_latency::.cpu.inst 81047.690015                       # average ReadCleanReq mshr miss latency
system.l2.ReadCleanReq_avg_mshr_miss_latency::total 81047.690015                       # average ReadCleanReq mshr miss latency
system.l2.ReadSharedReq_hits::.cpu.data        452460                       # number of ReadSharedReq hits
system.l2.ReadSharedReq_hits::total            452460                       # number of ReadSharedReq hits
system.l2.ReadSharedReq_misses::.cpu.data        81491                       # number of ReadSharedReq misses
system.l2.ReadSharedReq_misses::total           81491                       # number of ReadSharedReq misses
system.l2.ReadSharedReq_miss_latency::.cpu.data   8246371000                       # number of ReadSharedReq miss cycles
system.l2.ReadSharedReq_miss_latency::total   8246371000                       # number of ReadSharedReq miss cycles
system.l2.ReadSharedReq_accesses::.cpu.data       533951                       # number of ReadSharedReq accesses(hits+misses)
system.l2.ReadSharedReq_accesses::total        533951                       # number of ReadSharedReq accesses(hits+misses)
system.l2.ReadSharedReq_miss_rate::.cpu.data     0.152619                       # miss rate for ReadSharedReq accesses
system.l2.ReadSharedReq_miss_rate::total     0.152619                       # miss rate for ReadSharedReq accesses
system.l2.ReadSharedReq_avg_miss_latency::.cpu.data 101193.641016                       # average ReadSharedReq miss latency
system.l2.ReadSharedReq_avg_miss_latency::total 101193.641016                       # average ReadSharedReq miss latency
system.l2.ReadSharedReq_mshr_hits::.cpu.data            6                       # number of ReadSharedReq MSHR hits
system.l2.ReadSharedReq_mshr_hits::total            6                       # number of ReadSharedReq MSHR hits
system.l2.ReadSharedReq_mshr_misses::.cpu.data        81485                       # number of ReadSharedReq MSHR misses
system.l2.ReadSharedReq_mshr_misses::total        81485                       # number of ReadSharedReq MSHR misses
system.l2.ReadSharedReq_mshr_miss_latency::.cpu.data   6616211000                       # number of ReadSharedReq MSHR miss cycles
system.l2.ReadSharedReq_mshr_miss_latency::total   6616211000                       # number of ReadSharedReq MSHR miss cycles
system.l2.ReadSharedReq_mshr_miss_rate::.cpu.data     0.152608                       # mshr miss rate for ReadSharedReq accesses
system.l2.ReadSharedReq_mshr_miss_rate::total     0.152608                       # mshr miss rate for ReadSharedReq accesses
system.l2.ReadSharedReq_avg_mshr_miss_latency::.cpu.data 81195.447015                       # average ReadSharedReq mshr miss latency
system.l2.ReadSharedReq_avg_mshr_miss_latency::total 81195.447015                       # average ReadSharedReq mshr miss latency
system.l2.power_state.pwrStateResidencyTicks::UNDEFINED 165435734000                       # Cumulative time (in ticks) in various power states
system.l2.tags.tagsinuse                 16136.069701                       # Cycle average of tags in use
system.l2.tags.total_refs                     1750580                       # Total number of references to valid blocks.
system.l2.tags.sampled_refs                    227471                       # Sample count of references to valid blocks.
system.l2.tags.avg_refs                      7.695838                       # Average number of references to valid blocks.
system.l2.tags.warmup_cycle                     87000                       # Cycle when the warmup percentage was hit.
system.l2.tags.occ_blocks::.writebacks      35.893575                       # Average occupied blocks per requestor
system.l2.tags.occ_blocks::.cpu.inst        57.097308                       # Average occupied blocks per requestor
system.l2.tags.occ_blocks::.cpu.data     16043.078818                       # Average occupied blocks per requestor
system.l2.tags.occ_percent::.writebacks      0.002191                       # Average percentage of cache occupancy
system.l2.tags.occ_percent::.cpu.inst        0.003485                       # Average percentage of cache occupancy
system.l2.tags.occ_percent::.cpu.data        0.979192                       # Average percentage of cache occupancy
system.l2.tags.occ_percent::total            0.984868                       # Average percentage of cache occupancy
system.l2.tags.occ_task_id_blocks::1024         16384                       # Occupied blocks per task id
system.l2.tags.age_task_id_blocks_1024::1           80                       # Occupied blocks per task id
system.l2.tags.age_task_id_blocks_1024::2         1425                       # Occupied blocks per task id
system.l2.tags.age_task_id_blocks_1024::3         9384                       # Occupied blocks per task id
system.l2.tags.age_task_id_blocks_1024::4         5495                       # Occupied blocks per task id
system.l2.tags.occ_task_id_percent::1024            1                       # Percentage of cache occupancy per task id
system.l2.tags.tag_accesses                  14232159                       # Number of tag accesses
system.l2.tags.data_accesses                 14232159                       # Number of data accesses
system.l2.tags.power_state.pwrStateResidencyTicks::UNDEFINED 165435734000                       # Cumulative time (in ticks) in various power states
system.mem_ctrls.avgPriority_.writebacks::samples    140631.00                       # Average QoS priority value for accepted requests
system.mem_ctrls.avgPriority_.cpu.inst::samples       671.00                       # Average QoS priority value for accepted requests
system.mem_ctrls.avgPriority_.cpu.data::samples    226421.00                       # Average QoS priority value for accepted requests
system.mem_ctrls.priorityMinLatency      0.000000018750                       # per QoS priority minimum request to response latency (s)
system.mem_ctrls.priorityMaxLatency      0.017389536500                       # per QoS priority maximum request to response latency (s)
system.mem_ctrls.numReadWriteTurnArounds         8321                       # Number of turnarounds from READ to WRITE
system.mem_ctrls.numWriteReadTurnArounds         8321                       # Number of turnarounds from WRITE to READ
system.mem_ctrls.numStayReadState              627097                       # Number of times bus staying in READ state
system.mem_ctrls.numStayWriteState             132556                       # Number of times bus staying in WRITE state
system.mem_ctrls.readReqs                      227291                       # Number of read requests accepted
system.mem_ctrls.writeReqs                     140631                       # Number of write requests accepted
system.mem_ctrls.readBursts                    227291                       # Number of controller read bursts, including those serviced by the write queue
system.mem_ctrls.writeBursts                   140631                       # Number of controller write bursts, including those merged in the write queue
system.mem_ctrls.servicedByWrQ                    199                       # Number of controller read bursts serviced by the write queue
system.mem_ctrls.mergedWrBursts                     0                       # Number of controller write bursts merged with an existing one
system.mem_ctrls.neitherReadNorWriteReqs            0                       # Number of requests that are neither read nor write
system.mem_ctrls.avgRdQLen                       1.05                       # Average read queue length when enqueuing
system.mem_ctrls.avgWrQLen                      24.52                       # Average write queue length when enqueuing
system.mem_ctrls.numRdRetry                         0                       # Number of times read queue was full causing retry
system.mem_ctrls.numWrRetry                         0                       # Number of times write queue was full causing retry
system.mem_ctrls.readPktSize::0                     0                       # Read request sizes (log2)
system.mem_ctrls.readPktSize::1                     0                       # Read request sizes (log2)
system.mem_ctrls.readPktSize::2                     0                       # Read request sizes (log2)
system.mem_ctrls.readPktSize::3                     0                       # Read request sizes (log2)
system.mem_ctrls.readPktSize::4                     0                       # Read request sizes (log2)
system.mem_ctrls.readPktSize::5                     0                       # Read request sizes (log2)
system.mem_ctrls.readPktSize::6                227291                       # Read request sizes (log2)
system.mem_ctrls.writePktSize::0                    0                       # Write request sizes (log2)
system.mem_ctrls.writePktSize::1                    0                       # Write request sizes (log2)
system.mem_ctrls.writePktSize::2                    0                       # Write request sizes (log2)
system.mem_ctrls.writePktSize::3                    0                       # Write request sizes (log2)
system.mem_ctrls.writePktSize::4                    0                       # Write request sizes (log2)
system.mem_ctrls.writePktSize::5                    0                       # Write request sizes (log2)
system.mem_ctrls.writePktSize::6               140631                       # Write request sizes (log2)
system.mem_ctrls.rdQLenPdf::0                  178015                       # What read queue length does an incoming req see
system.mem_ctrls.rdQLenPdf::1                   48824                       # What read queue length does an incoming req see
system.mem_ctrls.rdQLenPdf::2                     154                       # What read queue length does an incoming req see
system.mem_ctrls.rdQLenPdf::3                      98                       # What read queue length does an incoming req see
system.mem_ctrls.rdQLenPdf::4                       1                       # What read queue length does an incoming req see
system.mem_ctrls.rdQLenPdf::5                       0                       # What read queue length does an incoming req see
system.mem_ctrls.rdQLenPdf::6                       0                       # What read queue length does an incoming req see
system.mem_ctrls.rdQLenPdf::7                       0                       # What read queue length does an incoming req see
system.mem_ctrls.rdQLenPdf::8                       0                       # What read queue length does an incoming req see
system.mem_ctrls.rdQLenPdf::9                       0                       # What read queue length does an incoming req see
system.mem_ctrls.rdQLenPdf::10                      0                       # What read queue length does an incoming req see
system.mem_ctrls.rdQLenPdf::11                      0                       # What read queue length does an incoming req see
system.mem_ctrls.rdQLenPdf::12                      0                       # What read queue length does an incoming req see
[...]
system.mem_ctrls.dram.bw_write::.writebacks     54404111                       # Write bandwidth from this memory (bytes/s)
system.mem_ctrls.dram.bw_write::total        54404111                       # Write bandwidth from this memory (bytes/s)
system.mem_ctrls.dram.bw_total::.writebacks     54404111                       # Total bandwidth to/from this memory (bytes/s)
system.mem_ctrls.dram.bw_total::.cpu.inst       259581                       # Total bandwidth to/from this memory (bytes/s)
system.mem_ctrls.dram.bw_total::.cpu.data     87669572                       # Total bandwidth to/from this memory (bytes/s)
system.mem_ctrls.dram.bw_total::total       142333264                       # Total bandwidth to/from this memory (bytes/s)
system.mem_ctrls.dram.readBursts               227092                       # Number of DRAM read bursts
system.mem_ctrls.dram.writeBursts              140614                       # Number of DRAM write bursts
system.mem_ctrls.dram.perBankRdBursts::0        14272                       # Per bank write bursts
system.mem_ctrls.dram.perBankRdBursts::1        14163                       # Per bank write bursts
system.mem_ctrls.dram.perBankRdBursts::2        14163                       # Per bank write bursts
system.mem_ctrls.dram.perBankRdBursts::3        14008                       # Per bank write bursts
system.mem_ctrls.dram.perBankRdBursts::4        14401                       # Per bank write bursts
system.mem_ctrls.dram.perBankRdBursts::5        13849                       # Per bank write bursts
system.mem_ctrls.dram.perBankRdBursts::6        14291                       # Per bank write bursts
system.mem_ctrls.dram.perBankRdBursts::7        14425                       # Per bank write bursts
system.mem_ctrls.dram.perBankRdBursts::8        14236                       # Per bank write bursts
system.mem_ctrls.dram.perBankRdBursts::9        13470                       # Per bank write bursts
system.mem_ctrls.dram.perBankRdBursts::10        13815                       # Per bank write bursts
system.mem_ctrls.dram.perBankRdBursts::11        14444                       # Per bank write bursts
system.mem_ctrls.dram.perBankRdBursts::12        14208                       # Per bank write bursts
system.mem_ctrls.dram.perBankRdBursts::13        14588                       # Per bank write bursts
system.mem_ctrls.dram.perBankRdBursts::14        14409                       # Per bank write bursts
system.mem_ctrls.dram.perBankRdBursts::15        14350                       # Per bank write bursts
system.mem_ctrls.dram.perBankWrBursts::0         8690                       # Per bank write bursts
system.mem_ctrls.dram.perBankWrBursts::1         8635                       # Per bank write bursts
system.mem_ctrls.dram.perBankWrBursts::2         8680                       # Per bank write bursts
system.mem_ctrls.dram.perBankWrBursts::3         8676                       # Per bank write bursts
system.mem_ctrls.dram.perBankWrBursts::4         9017                       # Per bank write bursts
system.mem_ctrls.dram.perBankWrBursts::5         8664                       # Per bank write bursts
system.mem_ctrls.dram.perBankWrBursts::6         9054                       # Per bank write bursts
system.mem_ctrls.dram.perBankWrBursts::7         9096                       # Per bank write bursts
system.mem_ctrls.dram.perBankWrBursts::8         8899                       # Per bank write bursts
system.mem_ctrls.dram.perBankWrBursts::9         8277                       # Per bank write bursts
system.mem_ctrls.dram.perBankWrBursts::10         8463                       # Per bank write bursts
system.mem_ctrls.dram.perBankWrBursts::11         9003                       # Per bank write bursts
system.mem_ctrls.dram.perBankWrBursts::12         8641                       # Per bank write bursts
system.mem_ctrls.dram.perBankWrBursts::13         9027                       # Per bank write bursts
system.mem_ctrls.dram.perBankWrBursts::14         8901                       # Per bank write bursts
system.mem_ctrls.dram.perBankWrBursts::15         8891                       # Per bank write bursts
system.mem_ctrls.dram.totQLat              3373789750                       # Total ticks spent queuing
system.mem_ctrls.dram.totBusLat            1135460000                       # Total ticks spent in databus transfers
system.mem_ctrls.dram.totMemAccLat         7631764750                       # Total ticks spent from burst creation until serviced by the DRAM
system.mem_ctrls.dram.avgQLat                14856.49                       # Average queueing delay per DRAM burst
system.mem_ctrls.dram.avgBusLat               5000.00                       # Average bus latency per DRAM burst
system.mem_ctrls.dram.avgMemAccLat           33606.49                       # Average memory access latency per DRAM burst
system.mem_ctrls.dram.readRowHits              136751                       # Number of row buffer hits during reads
system.mem_ctrls.dram.writeRowHits              84092                       # Number of row buffer hits during writes
system.mem_ctrls.dram.readRowHitRate            60.22                       # Row buffer hit rate for reads
system.mem_ctrls.dram.writeRowHitRate           59.80                       # Row buffer hit rate for writes
system.mem_ctrls.dram.bytesPerActivate::samples       146863                       # Bytes accessed per row activation
system.mem_ctrls.dram.bytesPerActivate::mean   160.239025                       # Bytes accessed per row activation
system.mem_ctrls.dram.bytesPerActivate::gmean    98.955805                       # Bytes accessed per row activation
system.mem_ctrls.dram.bytesPerActivate::stdev   226.744078                       # Bytes accessed per row activation
system.mem_ctrls.dram.bytesPerActivate::0-127       105734     71.99%     71.99% # Bytes accessed per row activation
system.mem_ctrls.dram.bytesPerActivate::128-255        17769     12.10%     84.09% # Bytes accessed per row activation
system.mem_ctrls.dram.bytesPerActivate::256-383         5359      3.65%     87.74% # Bytes accessed per row activation
system.mem_ctrls.dram.bytesPerActivate::384-511         1292      0.88%     88.62% # Bytes accessed per row activation
system.mem_ctrls.dram.bytesPerActivate::512-639         8907      6.06%     94.69% # Bytes accessed per row activation
system.mem_ctrls.dram.bytesPerActivate::640-767          620      0.42%     95.11% # Bytes accessed per row activation
system.mem_ctrls.dram.bytesPerActivate::768-895          570      0.39%     95.50% # Bytes accessed per row activation
system.mem_ctrls.dram.bytesPerActivate::896-1023          481      0.33%     95.83% # Bytes accessed per row activation
system.mem_ctrls.dram.bytesPerActivate::1024-1151         6131      4.17%    100.00% # Bytes accessed per row activation
system.mem_ctrls.dram.bytesPerActivate::total       146863                       # Bytes accessed per row activation
system.mem_ctrls.dram.bytesRead              14533888                       # Total number of bytes read from DRAM
system.mem_ctrls.dram.bytesWritten            8999296                       # Total number of bytes written to DRAM
system.mem_ctrls.dram.avgRdBW               87.852169                       # Average DRAM read bandwidth in MiBytes/s
system.mem_ctrls.dram.avgWrBW               54.397534                       # Average DRAM write bandwidth in MiBytes/s
system.mem_ctrls.dram.peakBW                 12800.00                       # Theoretical peak bandwidth in MiByte/s
system.mem_ctrls.dram.busUtil                    1.11                       # Data bus utilization in percentage
system.mem_ctrls.dram.busUtilRead                0.69                       # Data bus utilization in percentage for reads
system.mem_ctrls.dram.busUtilWrite               0.42                       # Data bus utilization in percentage for writes
system.mem_ctrls.dram.pageHitRate               60.06                       # Row buffer hit rate, read and write combined
system.mem_ctrls.dram.power_state.pwrStateResidencyTicks::UNDEFINED 165435734000                       # Cumulative time (in ticks) in various power states
system.mem_ctrls.dram.rank0.actEnergy       523768980                       # Energy for activate commands per rank (pJ)
system.mem_ctrls.dram.rank0.preEnergy       278389815                       # Energy for precharge commands per rank (pJ)
system.mem_ctrls.dram.rank0.readEnergy      810904080                       # Energy for read commands per rank (pJ)
system.mem_ctrls.dram.rank0.writeEnergy     368072640                       # Energy for write commands per rank (pJ)
system.mem_ctrls.dram.rank0.refreshEnergy 13059256080.000002                       # Energy for refresh commands per rank (pJ)
system.mem_ctrls.dram.rank0.actBackEnergy  37457441130                       # Energy for active background per rank (pJ)
system.mem_ctrls.dram.rank0.preBackEnergy  31984213920                       # Energy for precharge background per rank (pJ)
system.mem_ctrls.dram.rank0.actPowerDownEnergy            0                       # Energy for active power-down per rank (pJ)
system.mem_ctrls.dram.rank0.prePowerDownEnergy            0                       # Energy for precharge power-down per rank (pJ)
system.mem_ctrls.dram.rank0.selfRefreshEnergy            0                       # Energy for self refresh per rank (pJ)
system.mem_ctrls.dram.rank0.totalEnergy   84482046645                       # Total energy per rank (pJ)
system.mem_ctrls.dram.rank0.averagePower   510.663837                       # Core power per rank (mW)
system.mem_ctrls.dram.rank0.totalIdleTime            0                       # Total Idle time Per DRAM Rank
system.mem_ctrls.dram.rank0.pwrStateTime::IDLE  82757493000                       # Time in different power states
system.mem_ctrls.dram.rank0.pwrStateTime::REF   5524220000                       # Time in different power states
system.mem_ctrls.dram.rank0.pwrStateTime::SREF            0                       # Time in different power states
system.mem_ctrls.dram.rank0.pwrStateTime::PRE_PDN            0                       # Time in different power states
system.mem_ctrls.dram.rank0.pwrStateTime::ACT  77154021000                       # Time in different power states
system.mem_ctrls.dram.rank0.pwrStateTime::ACT_PDN            0                       # Time in different power states
system.mem_ctrls.dram.rank1.actEnergy       524832840                       # Energy for activate commands per rank (pJ)
system.mem_ctrls.dram.rank1.preEnergy       278955270                       # Energy for precharge commands per rank (pJ)
system.mem_ctrls.dram.rank1.readEnergy      810532800                       # Energy for read commands per rank (pJ)
system.mem_ctrls.dram.rank1.writeEnergy     365932440                       # Energy for write commands per rank (pJ)
system.mem_ctrls.dram.rank1.refreshEnergy 13059256080.000002                       # Energy for refresh commands per rank (pJ)
system.mem_ctrls.dram.rank1.actBackEnergy  37287446610                       # Energy for active background per rank (pJ)
system.mem_ctrls.dram.rank1.preBackEnergy  32127367200                       # Energy for precharge background per rank (pJ)
system.mem_ctrls.dram.rank1.actPowerDownEnergy            0                       # Energy for active power-down per rank (pJ)
system.mem_ctrls.dram.rank1.prePowerDownEnergy            0                       # Energy for precharge power-down per rank (pJ)
system.mem_ctrls.dram.rank1.selfRefreshEnergy            0                       # Energy for self refresh per rank (pJ)
system.mem_ctrls.dram.rank1.totalEnergy   84454323240                       # Total energy per rank (pJ)
system.mem_ctrls.dram.rank1.averagePower   510.496259                       # Core power per rank (mW)
system.mem_ctrls.dram.rank1.totalIdleTime            0                       # Total Idle time Per DRAM Rank
system.mem_ctrls.dram.rank1.pwrStateTime::IDLE  83128882500                       # Time in different power states
system.mem_ctrls.dram.rank1.pwrStateTime::REF   5524220000                       # Time in different power states
system.mem_ctrls.dram.rank1.pwrStateTime::SREF            0                       # Time in different power states
system.mem_ctrls.dram.rank1.pwrStateTime::PRE_PDN            0                       # Time in different power states
system.mem_ctrls.dram.rank1.pwrStateTime::ACT  76782631500                       # Time in different power states
system.mem_ctrls.dram.rank1.pwrStateTime::ACT_PDN            0                       # Time in different power states
system.mem_ctrls.power_state.pwrStateResidencyTicks::UNDEFINED 165435734000                       # Cumulative time (in ticks) in various power states
system.membus.trans_dist::ReadResp              82156                       # Transaction distribution
system.membus.trans_dist::WritebackDirty       140631                       # Transaction distribution
system.membus.trans_dist::CleanEvict            69837                       # Transaction distribution
system.membus.trans_dist::ReadExReq            145135                       # Transaction distribution
system.membus.trans_dist::ReadExResp           145135                       # Transaction distribution
system.membus.trans_dist::ReadSharedReq         82156                       # Transaction distribution
system.membus.pkt_count_system.l2.mem_side_port::system.mem_ctrls.port       665050                       # Packet count per connected requestor and responder (bytes)
system.membus.pkt_count::total                 665050                       # Packet count per connected requestor and responder (bytes)
system.membus.pkt_size_system.l2.mem_side_port::system.mem_ctrls.port     23547008                       # Cumulative packet size per connected requestor and responder (bytes)
system.membus.pkt_size::total                23547008                       # Cumulative packet size per connected requestor and responder (bytes)
system.membus.snoops                                0                       # Total snoops (count)
system.membus.snoopTraffic                          0                       # Total snoop traffic (bytes)
system.membus.snoop_fanout::samples            227291                       # Request fanout histogram
system.membus.snoop_fanout::mean                    0                       # Request fanout histogram
system.membus.snoop_fanout::stdev                   0                       # Request fanout histogram
system.membus.snoop_fanout::underflows              0      0.00%      0.00% # Request fanout histogram
system.membus.snoop_fanout::0                  227291    100.00%    100.00% # Request fanout histogram
system.membus.snoop_fanout::1                       0      0.00%    100.00% # Request fanout histogram
system.membus.snoop_fanout::overflows               0      0.00%    100.00% # Request fanout histogram
system.membus.snoop_fanout::min_value               0                       # Request fanout histogram
system.membus.snoop_fanout::max_value               0                       # Request fanout histogram
system.membus.snoop_fanout::total              227291                       # Request fanout histogram
system.membus.power_state.pwrStateResidencyTicks::UNDEFINED 165435734000                       # Cumulative time (in ticks) in various power states
system.membus.reqLayer0.occupancy          1000283000                       # Layer occupancy (ticks)
system.membus.reqLayer0.utilization               0.6                       # Layer utilization (%)
system.membus.respLayer1.occupancy         1231276000                       # Layer occupancy (ticks)
system.membus.respLayer1.utilization              0.7                       # Layer utilization (%)
system.tol2bus.trans_dist::ReadResp            534724                       # Transaction distribution
system.tol2bus.trans_dist::WritebackDirty       927795                       # Transaction distribution
system.tol2bus.trans_dist::WritebackClean          333                       # Transaction distribution
system.tol2bus.trans_dist::CleanEvict          157966                       # Transaction distribution
system.tol2bus.trans_dist::ReadExReq           341235                       # Transaction distribution
system.tol2bus.trans_dist::ReadExResp          341235                       # Transaction distribution
system.tol2bus.trans_dist::ReadCleanReq           773                       # Transaction distribution
system.tol2bus.trans_dist::ReadSharedReq       533951                       # Transaction distribution
system.tol2bus.pkt_count_system.cpu.icache.mem_side_port::system.l2.cpu_side_port         1879                       # Packet count per connected requestor and responder (bytes)
system.tol2bus.pkt_count_system.cpu.dcache.mem_side_port::system.l2.cpu_side_port      2625046                       # Packet count per connected requestor and responder (bytes)
system.tol2bus.pkt_count::total               2626925                       # Packet count per connected requestor and responder (bytes)
system.tol2bus.pkt_size_system.cpu.icache.mem_side_port::system.l2.cpu_side_port        70784                       # Cumulative packet size per connected requestor and responder (bytes)
system.tol2bus.pkt_size_system.cpu.dcache.mem_side_port::system.l2.cpu_side_port    106390400                       # Cumulative packet size per connected requestor and responder (bytes)
system.tol2bus.pkt_size::total              106461184                       # Cumulative packet size per connected requestor and responder (bytes)
system.tol2bus.snoops                          211087                       # Total snoops (count)
system.tol2bus.snoopTraffic                   9000384                       # Total snoop traffic (bytes)
system.tol2bus.snoop_fanout::samples          1087046                       # Request fanout histogram
system.tol2bus.snoop_fanout::mean            0.000922                       # Request fanout histogram
system.tol2bus.snoop_fanout::stdev           0.030407                       # Request fanout histogram
system.tol2bus.snoop_fanout::underflows             0      0.00%      0.00% # Request fanout histogram
system.tol2bus.snoop_fanout::0                1086046     99.91%     99.91% # Request fanout histogram
system.tol2bus.snoop_fanout::1                    998      0.09%    100.00% # Request fanout histogram
system.tol2bus.snoop_fanout::2                      2      0.00%    100.00% # Request fanout histogram
system.tol2bus.snoop_fanout::overflows              0      0.00%    100.00% # Request fanout histogram
system.tol2bus.snoop_fanout::min_value              0                       # Request fanout histogram
system.tol2bus.snoop_fanout::max_value              2                       # Request fanout histogram
system.tol2bus.snoop_fanout::total            1087046                       # Request fanout histogram
system.tol2bus.power_state.pwrStateResidencyTicks::UNDEFINED 165435734000                       # Cumulative time (in ticks) in various power states
system.tol2bus.reqLayer0.occupancy         3325960000                       # Layer occupancy (ticks)
system.tol2bus.reqLayer0.utilization              2.0                       # Layer utilization (%)
system.tol2bus.respLayer0.occupancy           2319000                       # Layer occupancy (ticks)
system.tol2bus.respLayer0.utilization             0.0                       # Layer utilization (%)
system.tol2bus.respLayer1.occupancy        2625564993                       # Layer occupancy (ticks)
system.tol2bus.respLayer1.utilization             1.6                       # Layer utilization (%)
system.voltage_domain.voltage                       1                       # Voltage in Volts

---------- End Simulation Statistics   ----------
